
This summary file was generated by TurbSim (v2.00.01a-bjj, 14-Oct-2014) on 25-Oct-2015 at 13:01:08.


Runtime Options:

**********  Random seed #1
-420274190  Random seed #2
         F  Output binary HH turbulence parameters?
         F  Output formatted turbulence parameters?
         F  Output AeroDyn HH files?
         T  Output AeroDyn FF files?
         F  Output BLADED FF files?
         F  Output tower data?
         F  Output formatted FF files?
         F  Output coherent turbulence time step file?
         T  Clockwise rotation when looking downwind?
 0 -  NONE  IEC turbulence models scaled to exact specified standard deviation


Turbine/Model Specifications:

        15  Vertical grid-point matrix dimension
        15  Horizontal grid-point matrix dimension
     0.050  Time step [seconds]
   630.000  Analysis time [seconds]
   630.000  Usable output time [seconds]
   154.000  Hub height [m]
   140.000  Grid height [m]
   140.000  Grid width [m]
     0.000  Vertical flow angle [degrees]
     0.000  Horizontal flow angle [degrees]


Meteorological Boundary Conditions:

    USRINP  Uniform user-input spectral model
       N/A  IEC standard
       N/A  IEC turbulence characteristic
       N/A  IEC turbulence type
       N/A  IEC Extreme Turbulence Model (ETM) "c" parameter [m/s]
       PL   Wind profile type
   100.000  Reference height [m]
    13.000  Reference wind speed [m/s]
       N/A  Jet height [m]
     0.200  Power law exponent
     0.030  Surface roughness length [m]


Non-IEC Meteorological Boundary Conditions:

    45.000  Site latitude [degrees]
     0.050  Gradient Richardson number
     0.616  Friction or shear velocity [m/s]
       N/A  Mixing layer depth [m]
       N/A  Mean hub u'w' Reynolds stress
       N/A  Mean hub u'v' Reynolds stress
       N/A  Mean hub v'w' Reynolds stress


Spatial Coherence Models:

       IEC  u-component coherence model
      NONE  v-component coherence model
      NONE  w-component coherence model
(   12.000, 0.353E-03)  u-component coherence parameters
                   N/A  v-component coherence parameters
                   N/A  w-component coherence parameters
       N/A  Coherence exponent


You have requested that the following file(s) be generated:

   /scratch/jrinker/IOFiles/WP5.0A04V00/WP5.0A04V00_84302.bts (AeroDyn/TurbSim full-field wind file)


Turbulence Simulation Scaling Parameter Summary:

   Turbulence model used                            =  Uniform user-input
   Gradient Richardson number                       =    0.050
   Monin-Obukhov (M-O) z/L parameter                =    0.067
   Monin-Obukhov (M-O) length scale                 = 2310.000 m
   Mean wind speed at hub height                    =   14.173 m/s

   Wind profile type                                =  Power law
   Power law exponent                               =    0.200
   Mean shear across rotor disk                     =    0.019 (m/s)/m
   Assumed rotor diameter                           =  140.000 m
   Surface roughness length                         =    0.030 m

   Nyquist frequency of turbulent wind field        =   10.000 Hz

   Number of time steps in the FFT                  =    12600
   Number of time steps output                      =    12600
   Number of points simulated                       =      225


Mean Flow Angles:

   Vertical   =   0.0 degrees
   Horizontal =   0.0 degrees

Mean Wind Speed Profile:

   Height    Wind Speed   Horizontal Angle  Vertical Angle  U-comp (X)   V-comp (Y)   W-comp (Z)
     (m)        (m/s)         (degrees)       (degrees)       (m/s)        (m/s)        (m/s)   
   ------    ----------   ----------------  --------------  ----------   ----------   ----------
    224.0       15.28            0.00            0.00         15.28         0.00         0.00
    214.0       15.14            0.00            0.00         15.14         0.00         0.00
    204.0       14.99            0.00            0.00         14.99         0.00         0.00
    194.0       14.84            0.00            0.00         14.84         0.00         0.00
    184.0       14.69            0.00            0.00         14.69         0.00         0.00
    174.0       14.52            0.00            0.00         14.52         0.00         0.00
    164.0       14.35            0.00            0.00         14.35         0.00         0.00
    154.0       14.17            0.00            0.00         14.17         0.00         0.00
    144.0       13.98            0.00            0.00         13.98         0.00         0.00
    134.0       13.78            0.00            0.00         13.78         0.00         0.00
    124.0       13.57            0.00            0.00         13.57         0.00         0.00
    114.0       13.35            0.00            0.00         13.35         0.00         0.00
    104.0       13.10            0.00            0.00         13.10         0.00         0.00
     94.0       12.84            0.00            0.00         12.84         0.00         0.00
     84.0       12.55            0.00            0.00         12.55         0.00         0.00


Harvested Random Seeds after Generation of the Random Numbers:

  -2031658669 Harvested seed # 1
   -432332802 Harvested seed # 2
  -2034542131 Harvested seed # 3
   -429383842 Harvested seed # 4
  -2042734323 Harvested seed # 5
   -428073016 Harvested seed # 6
  -2045945368 Harvested seed # 7
   -424665286 Harvested seed # 8
   1743204179 Harvested seed # 9
   1950052350 Harvested seed #10
   1002138573 Harvested seed #11
    493357662 Harvested seed #12


Hub-Height Simulated Turbulence Statistical Summary:

   Type of Wind        Min (m/s)   Mean (m/s)    Max (m/s)  Sigma (m/s)       TI (%)
   ----------------    ---------   ----------    ---------  -----------       ------
   Longitudinal (u)         0.84        14.17        30.94        5.095       35.949
   Lateral (v)            -16.86         0.00        16.86        5.201       36.699
   Vertical (w)           -12.30        -0.00        10.97        3.250       22.929
   U component              0.84        14.17        30.94        5.095       35.949
   V component            -16.86         0.00        16.86        5.201       36.699
   W component            -12.30        -0.00        10.97        3.250       22.929
   Horizontal (U&V)         1.53        15.11        31.70        5.057       33.470
   Total                    1.91        15.49        31.73        4.946       31.926

                       Min Reynolds     Mean Reynolds    Max Reynolds    Correlation
   Product             Stress (m/s)^2   Stress (m/s)^2   Stress (m/s)^2  Coefficient
   ----------------    --------------   --------------   --------------  -----------
   u'w'                   -103.543            -0.261            85.746        -0.016
   u'v'                   -124.454             1.513           180.364         0.057
   v'w'                   -115.591            -1.588            72.898        -0.094


   Friction Velocity (Ustar)  =      0.510 m/s
   Maximum Instantaneous TKE  =    190.433 (m/s)^2
   Maximum Instantaneous CTKE =     90.877 (m/s)^2


Grid Point Variance Summary:

   Y-coord  -70.00  -60.00  -50.00  -40.00  -30.00  -20.00  -10.00    0.00   10.00   20.00   30.00   40.00   50.00   60.00   70.00

   Height   Standard deviation at grid points for the u component:
   224.00    5.794   6.412   6.417   6.154   5.781   5.400   5.426   5.570   5.713   5.425   5.647   5.629   5.098   4.936   5.218
   214.00    5.741   5.857   5.842   5.807   5.398   5.532   5.323   5.608   5.710   5.750   5.631   5.311   5.391   5.292   5.203
   204.00    5.583   5.223   5.531   6.126   6.141   5.651   5.972   5.673   5.626   5.859   5.495   5.323   5.882   5.839   5.533
   194.00    5.089   5.601   5.449   5.671   6.186   6.006   5.865   5.306   5.598   6.142   5.700   5.651   5.907   6.191   5.957
   184.00    5.351   5.620   5.295   5.765   6.397   6.093   5.611   5.149   5.197   5.725   5.464   5.533   5.587   5.745   5.646
   174.00    5.531   5.604   5.902   5.745   6.227   6.208   5.512   4.762   4.939   5.321   5.506   5.682   5.681   5.393   5.326
   164.00    5.605   5.362   5.519   5.610   5.816   6.121   5.608   4.717   4.988   5.120   5.475   5.544   5.467   5.240   5.270
   154.00    5.545   5.427   5.909   6.250   6.175   6.005   5.622   5.095   5.152   5.613   5.456   5.700   5.971   5.756   5.828
   144.00    5.918   5.850   5.399   5.670   5.885   5.854   6.096   5.928   5.685   5.666   5.866   5.495   5.775   6.016   5.892
   134.00    5.746   5.145   5.441   4.865   5.431   5.414   5.537   6.306   5.810   5.853   5.995   6.237   6.502   6.270   5.607
   124.00    5.419   5.808   5.466   5.552   5.175   5.605   5.476   5.706   5.832   6.096   6.045   5.974   6.133   6.215   6.027
   114.00    5.756   5.602   5.852   5.812   5.791   5.549   5.232   5.529   5.661   5.530   5.782   6.013   5.838   6.088   6.161
   104.00    5.800   6.240   6.336   5.568   5.293   5.309   5.351   5.720   6.023   6.175   5.711   5.599   6.075   5.947   5.968
    94.00    6.424   6.249   6.196   5.659   5.560   5.317   5.472   5.200   5.823   5.804   5.167   5.440   5.679   5.806   5.819
    84.00    6.507   5.818   6.085   6.057   5.449   5.576   5.300   5.671   5.459   5.586   5.406   6.067   6.248   6.015   5.794

   Height   Standard deviation at grid points for the v component:
   224.00    5.201   5.201   5.201   5.201   5.201   5.201   5.201   5.201   5.201   5.201   5.201   5.201   5.201   5.201   5.201
   214.00    5.201   5.201   5.201   5.201   5.201   5.201   5.201   5.201   5.201   5.201   5.201   5.201   5.201   5.201   5.201
   204.00    5.201   5.201   5.201   5.201   5.201   5.201   5.201   5.201   5.201   5.201   5.201   5.201   5.201   5.201   5.201
   194.00    5.201   5.201   5.201   5.201   5.201   5.201   5.201   5.201   5.201   5.201   5.201   5.201   5.201   5.201   5.201
   184.00    5.201   5.201   5.201   5.201   5.201   5.201   5.201   5.201   5.201   5.201   5.201   5.201   5.201   5.201   5.201
   174.00    5.201   5.201   5.201   5.201   5.201   5.201   5.201   5.201   5.201   5.201   5.201   5.201   5.201   5.201   5.201
   164.00    5.201   5.201   5.201   5.201   5.201   5.201   5.201   5.201   5.201   5.201   5.201   5.201   5.201   5.201   5.201
   154.00    5.201   5.201   5.201   5.201   5.201   5.201   5.201   5.201   5.201   5.201   5.201   5.201   5.201   5.201   5.201
   144.00    5.201   5.201   5.201   5.201   5.201   5.201   5.201   5.201   5.201   5.201   5.201   5.201   5.201   5.201   5.201
   134.00    5.201   5.201   5.201   5.201   5.201   5.201   5.201   5.201   5.201   5.201   5.201   5.201   5.201   5.201   5.201
   124.00    5.201   5.201   5.201   5.201   5.201   5.201   5.201   5.201   5.201   5.201   5.201   5.201   5.201   5.201   5.201
   114.00    5.201   5.201   5.201   5.201   5.201   5.201   5.201   5.201   5.201   5.201   5.201   5.201   5.201   5.201   5.201
   104.00    5.201   5.201   5.201   5.201   5.201   5.201   5.201   5.201   5.201   5.201   5.201   5.201   5.201   5.201   5.201
    94.00    5.201   5.201   5.201   5.201   5.201   5.201   5.201   5.201   5.201   5.201   5.201   5.201   5.201   5.201   5.201
    84.00    5.201   5.201   5.201   5.201   5.201   5.201   5.201   5.201   5.201   5.201   5.201   5.201   5.201   5.201   5.201

   Height   Standard deviation at grid points for the w component:
   224.00    3.250   3.250   3.250   3.250   3.250   3.250   3.250   3.250   3.250   3.250   3.250   3.250   3.250   3.250   3.250
   214.00    3.250   3.250   3.250   3.250   3.250   3.250   3.250   3.250   3.250   3.250   3.250   3.250   3.250   3.250   3.250
   204.00    3.250   3.250   3.250   3.250   3.250   3.250   3.250   3.250   3.250   3.250   3.250   3.250   3.250   3.250   3.250
   194.00    3.250   3.250   3.250   3.250   3.250   3.250   3.250   3.250   3.250   3.250   3.250   3.250   3.250   3.250   3.250
   184.00    3.250   3.250   3.250   3.250   3.250   3.250   3.250   3.250   3.250   3.250   3.250   3.250   3.250   3.250   3.250
   174.00    3.250   3.250   3.250   3.250   3.250   3.250   3.250   3.250   3.250   3.250   3.250   3.250   3.250   3.250   3.250
   164.00    3.250   3.250   3.250   3.250   3.250   3.250   3.250   3.250   3.250   3.250   3.250   3.250   3.250   3.250   3.250
   154.00    3.250   3.250   3.250   3.250   3.250   3.250   3.250   3.250   3.250   3.250   3.250   3.250   3.250   3.250   3.250
   144.00    3.250   3.250   3.250   3.250   3.250   3.250   3.250   3.250   3.250   3.250   3.250   3.250   3.250   3.250   3.250
   134.00    3.250   3.250   3.250   3.250   3.250   3.250   3.250   3.250   3.250   3.250   3.250   3.250   3.250   3.250   3.250
   124.00    3.250   3.250   3.250   3.250   3.250   3.250   3.250   3.250   3.250   3.250   3.250   3.250   3.250   3.250   3.250
   114.00    3.250   3.250   3.250   3.250   3.250   3.250   3.250   3.250   3.250   3.250   3.250   3.250   3.250   3.250   3.250
   104.00    3.250   3.250   3.250   3.250   3.250   3.250   3.250   3.250   3.250   3.250   3.250   3.250   3.250   3.250   3.250
    94.00    3.250   3.250   3.250   3.250   3.250   3.250   3.250   3.250   3.250   3.250   3.250   3.250   3.250   3.250   3.250
    84.00    3.250   3.250   3.250   3.250   3.250   3.250   3.250   3.250   3.250   3.250   3.250   3.250   3.250   3.250   3.250

   Mean standard deviation across all grid points:
      u component:    5.689 m/s
      v component:    5.201 m/s
      w component:    3.250 m/s


U-component (X) statistics from the interpolated hub point:

   Mean =  14.1725 m/s
   TI   =  35.9492 %


Processing complete.  37.09 CPU seconds used.
