
This summary file was generated by TurbSim (v2.00.01a-bjj, 14-Oct-2014) on 25-Oct-2015 at 13:01:07.


Runtime Options:

-262856972  Random seed #1
**********  Random seed #2
         F  Output binary HH turbulence parameters?
         F  Output formatted turbulence parameters?
         F  Output AeroDyn HH files?
         T  Output AeroDyn FF files?
         F  Output BLADED FF files?
         F  Output tower data?
         F  Output formatted FF files?
         F  Output coherent turbulence time step file?
         T  Clockwise rotation when looking downwind?
 0 -  NONE  IEC turbulence models scaled to exact specified standard deviation


Turbine/Model Specifications:

        15  Vertical grid-point matrix dimension
        15  Horizontal grid-point matrix dimension
     0.050  Time step [seconds]
   630.000  Analysis time [seconds]
   630.000  Usable output time [seconds]
   154.000  Hub height [m]
   140.000  Grid height [m]
   140.000  Grid width [m]
     0.000  Vertical flow angle [degrees]
     0.000  Horizontal flow angle [degrees]


Meteorological Boundary Conditions:

    USRINP  Uniform user-input spectral model
       N/A  IEC standard
       N/A  IEC turbulence characteristic
       N/A  IEC turbulence type
       N/A  IEC Extreme Turbulence Model (ETM) "c" parameter [m/s]
       PL   Wind profile type
   100.000  Reference height [m]
     9.000  Reference wind speed [m/s]
       N/A  Jet height [m]
     0.200  Power law exponent
     0.030  Surface roughness length [m]


Non-IEC Meteorological Boundary Conditions:

    45.000  Site latitude [degrees]
     0.050  Gradient Richardson number
     0.426  Friction or shear velocity [m/s]
       N/A  Mixing layer depth [m]
       N/A  Mean hub u'w' Reynolds stress
       N/A  Mean hub u'v' Reynolds stress
       N/A  Mean hub v'w' Reynolds stress


Spatial Coherence Models:

       IEC  u-component coherence model
      NONE  v-component coherence model
      NONE  w-component coherence model
(   12.000, 0.353E-03)  u-component coherence parameters
                   N/A  v-component coherence parameters
                   N/A  w-component coherence parameters
       N/A  Coherence exponent


You have requested that the following file(s) be generated:

   /scratch/jrinker/IOFiles/WP5.0A04V00/WP5.0A04V00_24222.bts (AeroDyn/TurbSim full-field wind file)


Turbulence Simulation Scaling Parameter Summary:

   Turbulence model used                            =  Uniform user-input
   Gradient Richardson number                       =    0.050
   Monin-Obukhov (M-O) z/L parameter                =    0.067
   Monin-Obukhov (M-O) length scale                 = 2310.000 m
   Mean wind speed at hub height                    =    9.812 m/s

   Wind profile type                                =  Power law
   Power law exponent                               =    0.200
   Mean shear across rotor disk                     =    0.013 (m/s)/m
   Assumed rotor diameter                           =  140.000 m
   Surface roughness length                         =    0.030 m

   Nyquist frequency of turbulent wind field        =   10.000 Hz

   Number of time steps in the FFT                  =    12600
   Number of time steps output                      =    12600
   Number of points simulated                       =      225


Mean Flow Angles:

   Vertical   =   0.0 degrees
   Horizontal =   0.0 degrees

Mean Wind Speed Profile:

   Height    Wind Speed   Horizontal Angle  Vertical Angle  U-comp (X)   V-comp (Y)   W-comp (Z)
     (m)        (m/s)         (degrees)       (degrees)       (m/s)        (m/s)        (m/s)   
   ------    ----------   ----------------  --------------  ----------   ----------   ----------
    224.0       10.58            0.00            0.00         10.58         0.00         0.00
    214.0       10.48            0.00            0.00         10.48         0.00         0.00
    204.0       10.38            0.00            0.00         10.38         0.00         0.00
    194.0       10.28            0.00            0.00         10.28         0.00         0.00
    184.0       10.17            0.00            0.00         10.17         0.00         0.00
    174.0       10.05            0.00            0.00         10.05         0.00         0.00
    164.0        9.94            0.00            0.00          9.94         0.00         0.00
    154.0        9.81            0.00            0.00          9.81         0.00         0.00
    144.0        9.68            0.00            0.00          9.68         0.00         0.00
    134.0        9.54            0.00            0.00          9.54         0.00         0.00
    124.0        9.40            0.00            0.00          9.40         0.00         0.00
    114.0        9.24            0.00            0.00          9.24         0.00         0.00
    104.0        9.07            0.00            0.00          9.07         0.00         0.00
     94.0        8.89            0.00            0.00          8.89         0.00         0.00
     84.0        8.69            0.00            0.00          8.69         0.00         0.00


Harvested Random Seeds after Generation of the Random Numbers:

   -260170087 Harvested seed # 1
  -1400799010 Harvested seed # 2
   -253944077 Harvested seed # 3
  -1395883818 Harvested seed # 4
   -261939468 Harvested seed # 5
  -1394507628 Harvested seed # 6
   -267903393 Harvested seed # 7
  -1398701853 Harvested seed # 8
   1232996249 Harvested seed # 9
   2072052446 Harvested seed #10
    819805939 Harvested seed #11
    315381206 Harvested seed #12


Hub-Height Simulated Turbulence Statistical Summary:

   Type of Wind        Min (m/s)   Mean (m/s)    Max (m/s)  Sigma (m/s)       TI (%)
   ----------------    ---------   ----------    ---------  -----------       ------
   Longitudinal (u)        -2.67         9.81        24.34        4.718       48.089
   Lateral (v)            -11.37        -0.00        17.38        3.600       36.690
   Vertical (w)            -7.69         0.00         8.18        2.250       22.931
   U component             -2.67         9.81        24.34        4.718       48.089
   V component            -11.37        -0.00        17.38        3.600       36.690
   W component             -7.69         0.00         8.18        2.250       22.931
   Horizontal (U&V)         0.20        10.61        24.34        4.343       40.925
   Total                    0.57        10.88        24.35        4.265       39.204

                       Min Reynolds     Mean Reynolds    Max Reynolds    Correlation
   Product             Stress (m/s)^2   Stress (m/s)^2   Stress (m/s)^2  Coefficient
   ----------------    --------------   --------------   --------------  -----------
   u'w'                    -72.863            -1.188            90.934        -0.112
   u'v'                    -82.592             1.225            88.064         0.072
   v'w'                    -48.179             0.324            84.472         0.040


   Friction Velocity (Ustar)  =      1.090 m/s
   Maximum Instantaneous TKE  =    156.089 (m/s)^2
   Maximum Instantaneous CTKE =     65.744 (m/s)^2


Grid Point Variance Summary:

   Y-coord  -70.00  -60.00  -50.00  -40.00  -30.00  -20.00  -10.00    0.00   10.00   20.00   30.00   40.00   50.00   60.00   70.00

   Height   Standard deviation at grid points for the u component:
   224.00    4.864   5.046   4.808   4.452   4.356   4.604   4.576   4.333   4.331   4.271   4.189   4.654   4.173   4.052   4.126
   214.00    4.869   5.503   5.544   4.396   4.301   4.268   4.787   4.568   3.987   4.318   4.264   4.345   4.601   4.211   4.149
   204.00    4.608   5.088   5.004   4.799   4.193   4.011   4.596   4.913   4.540   4.263   4.114   4.312   4.632   4.718   4.337
   194.00    4.368   4.707   4.740   4.425   4.053   4.348   4.505   4.865   4.969   4.747   4.426   4.452   4.880   4.530   4.338
   184.00    4.353   4.563   4.389   4.349   4.538   4.555   4.070   4.634   4.843   4.795   5.217   4.991   4.956   4.645   4.041
   174.00    4.828   4.749   4.448   4.471   4.455   4.445   4.491   4.520   4.844   4.976   5.403   5.370   4.700   4.620   4.278
   164.00    5.073   4.500   4.510   4.711   4.629   4.616   4.531   4.834   4.888   5.370   5.039   4.734   4.511   4.420   4.231
   154.00    5.257   4.660   4.542   4.781   4.763   4.515   5.004   4.718   4.728   4.618   4.449   4.467   4.149   4.128   4.185
   144.00    5.103   4.604   4.560   4.574   4.388   4.577   4.840   4.744   4.720   4.215   4.030   4.005   3.956   3.744   4.023
   134.00    4.677   4.696   4.599   4.845   4.414   4.457   4.735   4.631   4.688   4.466   3.836   3.502   3.926   3.625   3.687
   124.00    4.657   4.865   4.710   4.409   4.406   4.559   4.533   4.540   4.502   4.631   3.976   3.669   3.658   3.532   3.669
   114.00    4.571   4.626   4.469   4.371   4.228   4.805   4.541   4.496   4.277   4.246   4.434   3.924   3.729   3.565   3.375
   104.00    4.829   4.489   4.835   4.610   4.174   4.691   4.396   4.348   4.316   4.138   4.143   4.237   3.641   3.479   3.451
    94.00    4.744   4.553   4.696   4.418   4.397   4.287   4.629   4.501   4.580   3.973   3.884   3.747   3.799   3.620   3.712
    84.00    4.501   4.753   4.950   4.100   4.362   4.458   4.424   4.358   4.048   4.066   3.642   3.348   3.555   3.525   3.554

   Height   Standard deviation at grid points for the v component:
   224.00    3.600   3.600   3.600   3.600   3.600   3.600   3.600   3.600   3.600   3.600   3.600   3.600   3.600   3.600   3.600
   214.00    3.600   3.600   3.600   3.600   3.600   3.600   3.600   3.600   3.600   3.600   3.600   3.600   3.600   3.600   3.600
   204.00    3.600   3.600   3.600   3.600   3.600   3.600   3.600   3.600   3.600   3.600   3.600   3.600   3.600   3.600   3.600
   194.00    3.600   3.600   3.600   3.600   3.600   3.600   3.600   3.600   3.600   3.600   3.600   3.600   3.600   3.600   3.600
   184.00    3.600   3.600   3.600   3.600   3.600   3.600   3.600   3.600   3.600   3.600   3.600   3.600   3.600   3.600   3.600
   174.00    3.600   3.600   3.600   3.600   3.600   3.600   3.600   3.600   3.600   3.600   3.600   3.600   3.600   3.600   3.600
   164.00    3.600   3.600   3.600   3.600   3.600   3.600   3.600   3.600   3.600   3.600   3.600   3.600   3.600   3.600   3.600
   154.00    3.600   3.600   3.600   3.600   3.600   3.600   3.600   3.600   3.600   3.600   3.600   3.600   3.600   3.600   3.600
   144.00    3.600   3.600   3.600   3.600   3.600   3.600   3.600   3.600   3.600   3.600   3.600   3.600   3.600   3.600   3.600
   134.00    3.600   3.600   3.600   3.600   3.600   3.600   3.600   3.600   3.600   3.600   3.600   3.600   3.600   3.600   3.600
   124.00    3.600   3.600   3.600   3.600   3.600   3.600   3.600   3.600   3.600   3.600   3.600   3.600   3.600   3.600   3.600
   114.00    3.600   3.600   3.600   3.600   3.600   3.600   3.600   3.600   3.600   3.600   3.600   3.600   3.600   3.600   3.600
   104.00    3.600   3.600   3.600   3.600   3.600   3.600   3.600   3.600   3.600   3.600   3.600   3.600   3.600   3.600   3.600
    94.00    3.600   3.600   3.600   3.600   3.600   3.600   3.600   3.600   3.600   3.600   3.600   3.600   3.600   3.600   3.600
    84.00    3.600   3.600   3.600   3.600   3.600   3.600   3.600   3.600   3.600   3.600   3.600   3.600   3.600   3.600   3.600

   Height   Standard deviation at grid points for the w component:
   224.00    2.250   2.250   2.250   2.250   2.250   2.250   2.250   2.250   2.250   2.250   2.250   2.250   2.250   2.250   2.250
   214.00    2.250   2.250   2.250   2.250   2.250   2.250   2.250   2.250   2.250   2.250   2.250   2.250   2.250   2.250   2.250
   204.00    2.250   2.250   2.250   2.250   2.250   2.250   2.250   2.250   2.250   2.250   2.250   2.250   2.250   2.250   2.250
   194.00    2.250   2.250   2.250   2.250   2.250   2.250   2.250   2.250   2.250   2.250   2.250   2.250   2.250   2.250   2.250
   184.00    2.250   2.250   2.250   2.250   2.250   2.250   2.250   2.250   2.250   2.250   2.250   2.250   2.250   2.250   2.250
   174.00    2.250   2.250   2.250   2.250   2.250   2.250   2.250   2.250   2.250   2.250   2.250   2.250   2.250   2.250   2.250
   164.00    2.250   2.250   2.250   2.250   2.250   2.250   2.250   2.250   2.250   2.250   2.250   2.250   2.250   2.250   2.250
   154.00    2.250   2.250   2.250   2.250   2.250   2.250   2.250   2.250   2.250   2.250   2.250   2.250   2.250   2.250   2.250
   144.00    2.250   2.250   2.250   2.250   2.250   2.250   2.250   2.250   2.250   2.250   2.250   2.250   2.250   2.250   2.250
   134.00    2.250   2.250   2.250   2.250   2.250   2.250   2.250   2.250   2.250   2.250   2.250   2.250   2.250   2.250   2.250
   124.00    2.250   2.250   2.250   2.250   2.250   2.250   2.250   2.250   2.250   2.250   2.250   2.250   2.250   2.250   2.250
   114.00    2.250   2.250   2.250   2.250   2.250   2.250   2.250   2.250   2.250   2.250   2.250   2.250   2.250   2.250   2.250
   104.00    2.250   2.250   2.250   2.250   2.250   2.250   2.250   2.250   2.250   2.250   2.250   2.250   2.250   2.250   2.250
    94.00    2.250   2.250   2.250   2.250   2.250   2.250   2.250   2.250   2.250   2.250   2.250   2.250   2.250   2.250   2.250
    84.00    2.250   2.250   2.250   2.250   2.250   2.250   2.250   2.250   2.250   2.250   2.250   2.250   2.250   2.250   2.250

   Mean standard deviation across all grid points:
      u component:    4.437 m/s
      v component:    3.600 m/s
      w component:    2.250 m/s


U-component (X) statistics from the interpolated hub point:

   Mean =   9.8118 m/s
   TI   =  48.0886 %


Processing complete.  33.461 CPU seconds used.
