
This summary file was generated by TurbSim (v2.00.01a-bjj, 14-Oct-2014) on 25-Oct-2015 at 12:51:30.


Runtime Options:

  36392582  Random seed #1
**********  Random seed #2
         F  Output binary HH turbulence parameters?
         F  Output formatted turbulence parameters?
         F  Output AeroDyn HH files?
         T  Output AeroDyn FF files?
         F  Output BLADED FF files?
         F  Output tower data?
         F  Output formatted FF files?
         F  Output coherent turbulence time step file?
         T  Clockwise rotation when looking downwind?
 0 -  NONE  IEC turbulence models scaled to exact specified standard deviation


Turbine/Model Specifications:

        15  Vertical grid-point matrix dimension
        15  Horizontal grid-point matrix dimension
     0.050  Time step [seconds]
   630.000  Analysis time [seconds]
   630.000  Usable output time [seconds]
    60.000  Hub height [m]
    56.000  Grid height [m]
    56.000  Grid width [m]
     0.000  Vertical flow angle [degrees]
     0.000  Horizontal flow angle [degrees]


Meteorological Boundary Conditions:

    USRINP  Uniform user-input spectral model
       N/A  IEC standard
       N/A  IEC turbulence characteristic
       N/A  IEC turbulence type
       N/A  IEC Extreme Turbulence Model (ETM) "c" parameter [m/s]
       PL   Wind profile type
   100.000  Reference height [m]
    10.500  Reference wind speed [m/s]
       N/A  Jet height [m]
     0.200  Power law exponent
     0.030  Surface roughness length [m]


Non-IEC Meteorological Boundary Conditions:

    45.000  Site latitude [degrees]
     0.050  Gradient Richardson number
     0.497  Friction or shear velocity [m/s]
       N/A  Mixing layer depth [m]
       N/A  Mean hub u'w' Reynolds stress
       N/A  Mean hub u'v' Reynolds stress
       N/A  Mean hub v'w' Reynolds stress


Spatial Coherence Models:

       IEC  u-component coherence model
      NONE  v-component coherence model
      NONE  w-component coherence model
(   12.000, 0.353E-03)  u-component coherence parameters
                   N/A  v-component coherence parameters
                   N/A  w-component coherence parameters
       N/A  Coherence exponent


You have requested that the following file(s) be generated:

   /scratch/jrinker/IOFiles/WP0.75A08V00/WP0.75A08V00_42331.bts (AeroDyn/TurbSim full-field wind file)


Turbulence Simulation Scaling Parameter Summary:

   Turbulence model used                            =  Uniform user-input
   Gradient Richardson number                       =    0.050
   Monin-Obukhov (M-O) z/L parameter                =    0.067
   Monin-Obukhov (M-O) length scale                 =  900.000 m
   Mean wind speed at hub height                    =    9.480 m/s

   Wind profile type                                =  Power law
   Power law exponent                               =    0.200
   Mean shear across rotor disk                     =    0.033 (m/s)/m
   Assumed rotor diameter                           =   56.000 m
   Surface roughness length                         =    0.030 m

   Nyquist frequency of turbulent wind field        =   10.000 Hz

   Number of time steps in the FFT                  =    12600
   Number of time steps output                      =    12600
   Number of points simulated                       =      225


Mean Flow Angles:

   Vertical   =   0.0 degrees
   Horizontal =   0.0 degrees

Mean Wind Speed Profile:

   Height    Wind Speed   Horizontal Angle  Vertical Angle  U-comp (X)   V-comp (Y)   W-comp (Z)
     (m)        (m/s)         (degrees)       (degrees)       (m/s)        (m/s)        (m/s)   
   ------    ----------   ----------------  --------------  ----------   ----------   ----------
     88.0       10.23            0.00            0.00         10.23         0.00         0.00
     84.0       10.14            0.00            0.00         10.14         0.00         0.00
     80.0       10.04            0.00            0.00         10.04         0.00         0.00
     76.0        9.94            0.00            0.00          9.94         0.00         0.00
     72.0        9.83            0.00            0.00          9.83         0.00         0.00
     68.0        9.72            0.00            0.00          9.72         0.00         0.00
     64.0        9.60            0.00            0.00          9.60         0.00         0.00
     60.0        9.48            0.00            0.00          9.48         0.00         0.00
     56.0        9.35            0.00            0.00          9.35         0.00         0.00
     52.0        9.21            0.00            0.00          9.21         0.00         0.00
     48.0        9.07            0.00            0.00          9.07         0.00         0.00
     44.0        8.91            0.00            0.00          8.91         0.00         0.00
     40.0        8.74            0.00            0.00          8.74         0.00         0.00
     36.0        8.56            0.00            0.00          8.56         0.00         0.00
     32.0        8.36            0.00            0.00          8.36         0.00         0.00


Harvested Random Seeds after Generation of the Random Numbers:

     35278367 Harvested seed # 1
  -1596147363 Harvested seed # 2
     40259141 Harvested seed # 3
  -1609188969 Harvested seed # 4
     39472866 Harvested seed # 5
  -1597458114 Harvested seed # 6
     34950895 Harvested seed # 7
  -1602438695 Harvested seed # 8
   1025156895 Harvested seed # 9
   1440524893 Harvested seed #10
     23488837 Harvested seed #11
   -132812649 Harvested seed #12


Hub-Height Simulated Turbulence Statistical Summary:

   Type of Wind        Min (m/s)   Mean (m/s)    Max (m/s)  Sigma (m/s)       TI (%)
   ----------------    ---------   ----------    ---------  -----------       ------
   Longitudinal (u)         1.14         9.48        21.06        3.200       33.751
   Lateral (v)             -9.74        -0.00         8.64        2.521       26.593
   Vertical (w)            -5.54        -0.00         6.72        1.575       16.610
   U component              1.14         9.48        21.06        3.200       33.751
   V component             -9.74        -0.00         8.64        2.521       26.593
   W component             -5.54        -0.00         6.72        1.575       16.610
   Horizontal (U&V)         1.19         9.80        21.38        3.214       32.784
   Total                    1.43         9.94        21.66        3.189       32.087

                       Min Reynolds     Mean Reynolds    Max Reynolds    Correlation
   Product             Stress (m/s)^2   Stress (m/s)^2   Stress (m/s)^2  Coefficient
   ----------------    --------------   --------------   --------------  -----------
   u'w'                    -43.472            -0.328            29.322        -0.065
   u'v'                    -70.082            -1.533            24.945        -0.190
   v'w'                    -25.745            -0.117            37.115        -0.030


   Friction Velocity (Ustar)  =      0.573 m/s
   Maximum Instantaneous TKE  =     79.832 (m/s)^2
   Maximum Instantaneous CTKE =     36.640 (m/s)^2


Grid Point Variance Summary:

   Y-coord  -28.00  -24.00  -20.00  -16.00  -12.00   -8.00   -4.00    0.00    4.00    8.00   12.00   16.00   20.00   24.00   28.00

   Height   Standard deviation at grid points for the u component:
    88.00    3.030   2.767   2.833   2.916   3.195   3.517   3.724   3.497   3.390   3.233   3.171   3.211   3.257   2.990   3.108
    84.00    2.897   2.822   2.831   2.983   3.198   3.502   3.719   3.501   3.453   3.671   3.383   3.257   3.169   3.308   2.953
    80.00    2.843   2.893   2.882   2.951   3.322   3.693   3.530   3.466   3.529   3.563   3.376   3.100   3.285   3.154   3.038
    76.00    3.103   3.074   2.889   3.021   3.267   3.574   3.521   3.371   3.452   3.440   3.093   3.070   3.180   2.986   3.028
    72.00    2.933   3.166   3.326   3.282   3.493   3.736   3.510   3.494   3.281   3.014   3.187   3.094   3.160   3.025   3.074
    68.00    3.141   3.242   3.180   3.451   3.573   3.647   3.677   3.588   3.396   3.258   3.316   3.209   2.945   3.041   2.881
    64.00    3.062   3.324   3.569   3.280   3.243   3.358   3.360   3.170   3.053   3.164   3.017   3.097   2.929   2.919   2.841
    60.00    3.289   3.430   3.565   3.319   3.292   3.241   3.193   3.200   3.140   3.204   3.186   3.080   2.997   2.808   2.704
    56.00    3.436   3.449   3.536   3.442   3.434   3.125   2.990   3.163   3.256   3.176   3.092   2.918   2.981   2.798   2.528
    52.00    3.586   3.324   3.124   3.314   3.481   3.092   2.947   2.981   3.059   2.960   2.807   2.707   2.779   2.634   2.744
    48.00    3.287   3.340   3.232   3.260   3.438   3.237   3.047   3.039   2.908   2.746   2.746   2.783   2.742   2.706   2.739
    44.00    3.365   3.281   3.210   3.192   3.354   3.305   3.354   3.203   2.868   3.151   2.875   2.642   2.719   2.854   2.907
    40.00    3.150   3.310   3.301   3.113   3.088   3.082   2.942   2.877   3.030   3.057   2.876   2.604   2.752   2.859   2.881
    36.00    3.024   3.246   3.141   3.010   2.982   2.737   2.899   2.848   3.142   2.938   2.729   2.792   2.715   2.833   2.719
    32.00    3.155   3.040   3.049   2.943   2.673   2.864   2.893   2.900   2.919   2.851   2.616   2.664   2.537   2.462   2.717

   Height   Standard deviation at grid points for the v component:
    88.00    2.521   2.521   2.521   2.521   2.521   2.521   2.521   2.521   2.521   2.521   2.521   2.521   2.521   2.521   2.521
    84.00    2.521   2.521   2.521   2.521   2.521   2.521   2.521   2.521   2.521   2.521   2.521   2.521   2.521   2.521   2.521
    80.00    2.521   2.521   2.521   2.521   2.521   2.521   2.521   2.521   2.521   2.521   2.521   2.521   2.521   2.521   2.521
    76.00    2.521   2.521   2.521   2.521   2.521   2.521   2.521   2.521   2.521   2.521   2.521   2.521   2.521   2.521   2.521
    72.00    2.521   2.521   2.521   2.521   2.521   2.521   2.521   2.521   2.521   2.521   2.521   2.521   2.521   2.521   2.521
    68.00    2.521   2.521   2.521   2.521   2.521   2.521   2.521   2.521   2.521   2.521   2.521   2.521   2.521   2.521   2.521
    64.00    2.521   2.521   2.521   2.521   2.521   2.521   2.521   2.521   2.521   2.521   2.521   2.521   2.521   2.521   2.521
    60.00    2.521   2.521   2.521   2.521   2.521   2.521   2.521   2.521   2.521   2.521   2.521   2.521   2.521   2.521   2.521
    56.00    2.521   2.521   2.521   2.521   2.521   2.521   2.521   2.521   2.521   2.521   2.521   2.521   2.521   2.521   2.521
    52.00    2.521   2.521   2.521   2.521   2.521   2.521   2.521   2.521   2.521   2.521   2.521   2.521   2.521   2.521   2.521
    48.00    2.521   2.521   2.521   2.521   2.521   2.521   2.521   2.521   2.521   2.521   2.521   2.521   2.521   2.521   2.521
    44.00    2.521   2.521   2.521   2.521   2.521   2.521   2.521   2.521   2.521   2.521   2.521   2.521   2.521   2.521   2.521
    40.00    2.521   2.521   2.521   2.521   2.521   2.521   2.521   2.521   2.521   2.521   2.521   2.521   2.521   2.521   2.521
    36.00    2.521   2.521   2.521   2.521   2.521   2.521   2.521   2.521   2.521   2.521   2.521   2.521   2.521   2.521   2.521
    32.00    2.521   2.521   2.521   2.521   2.521   2.521   2.521   2.521   2.521   2.521   2.521   2.521   2.521   2.521   2.521

   Height   Standard deviation at grid points for the w component:
    88.00    1.575   1.575   1.575   1.575   1.575   1.575   1.575   1.575   1.575   1.575   1.575   1.575   1.575   1.575   1.575
    84.00    1.575   1.575   1.575   1.575   1.575   1.575   1.575   1.575   1.575   1.575   1.575   1.575   1.575   1.575   1.575
    80.00    1.575   1.575   1.575   1.575   1.575   1.575   1.575   1.575   1.575   1.575   1.575   1.575   1.575   1.575   1.575
    76.00    1.575   1.575   1.575   1.575   1.575   1.575   1.575   1.575   1.575   1.575   1.575   1.575   1.575   1.575   1.575
    72.00    1.575   1.575   1.575   1.575   1.575   1.575   1.575   1.575   1.575   1.575   1.575   1.575   1.575   1.575   1.575
    68.00    1.575   1.575   1.575   1.575   1.575   1.575   1.575   1.575   1.575   1.575   1.575   1.575   1.575   1.575   1.575
    64.00    1.575   1.575   1.575   1.575   1.575   1.575   1.575   1.575   1.575   1.575   1.575   1.575   1.575   1.575   1.575
    60.00    1.575   1.575   1.575   1.575   1.575   1.575   1.575   1.575   1.575   1.575   1.575   1.575   1.575   1.575   1.575
    56.00    1.575   1.575   1.575   1.575   1.575   1.575   1.575   1.575   1.575   1.575   1.575   1.575   1.575   1.575   1.575
    52.00    1.575   1.575   1.575   1.575   1.575   1.575   1.575   1.575   1.575   1.575   1.575   1.575   1.575   1.575   1.575
    48.00    1.575   1.575   1.575   1.575   1.575   1.575   1.575   1.575   1.575   1.575   1.575   1.575   1.575   1.575   1.575
    44.00    1.575   1.575   1.575   1.575   1.575   1.575   1.575   1.575   1.575   1.575   1.575   1.575   1.575   1.575   1.575
    40.00    1.575   1.575   1.575   1.575   1.575   1.575   1.575   1.575   1.575   1.575   1.575   1.575   1.575   1.575   1.575
    36.00    1.575   1.575   1.575   1.575   1.575   1.575   1.575   1.575   1.575   1.575   1.575   1.575   1.575   1.575   1.575
    32.00    1.575   1.575   1.575   1.575   1.575   1.575   1.575   1.575   1.575   1.575   1.575   1.575   1.575   1.575   1.575

   Mean standard deviation across all grid points:
      u component:    3.120 m/s
      v component:    2.521 m/s
      w component:    1.575 m/s


U-component (X) statistics from the interpolated hub point:

   Mean =   9.4802 m/s
   TI   =  33.7512 %


Processing complete.  34.065 CPU seconds used.
