
This summary file was generated by TurbSim (v2.00.01a-bjj, 14-Oct-2014) on 25-Oct-2015 at 12:55:51.


Runtime Options:

-794246009  Random seed #1
**********  Random seed #2
         F  Output binary HH turbulence parameters?
         F  Output formatted turbulence parameters?
         F  Output AeroDyn HH files?
         T  Output AeroDyn FF files?
         F  Output BLADED FF files?
         F  Output tower data?
         F  Output formatted FF files?
         F  Output coherent turbulence time step file?
         T  Clockwise rotation when looking downwind?
 0 -  NONE  IEC turbulence models scaled to exact specified standard deviation


Turbine/Model Specifications:

        15  Vertical grid-point matrix dimension
        15  Horizontal grid-point matrix dimension
     0.050  Time step [seconds]
   630.000  Analysis time [seconds]
   630.000  Usable output time [seconds]
    60.000  Hub height [m]
    56.000  Grid height [m]
    56.000  Grid width [m]
     0.000  Vertical flow angle [degrees]
     0.000  Horizontal flow angle [degrees]


Meteorological Boundary Conditions:

    USRINP  Uniform user-input spectral model
       N/A  IEC standard
       N/A  IEC turbulence characteristic
       N/A  IEC turbulence type
       N/A  IEC Extreme Turbulence Model (ETM) "c" parameter [m/s]
       PL   Wind profile type
   100.000  Reference height [m]
    16.000  Reference wind speed [m/s]
       N/A  Jet height [m]
     0.200  Power law exponent
     0.030  Surface roughness length [m]


Non-IEC Meteorological Boundary Conditions:

    45.000  Site latitude [degrees]
     0.050  Gradient Richardson number
     0.758  Friction or shear velocity [m/s]
       N/A  Mixing layer depth [m]
       N/A  Mean hub u'w' Reynolds stress
       N/A  Mean hub u'v' Reynolds stress
       N/A  Mean hub v'w' Reynolds stress


Spatial Coherence Models:

       IEC  u-component coherence model
      NONE  v-component coherence model
      NONE  w-component coherence model
(   12.000, 0.353E-03)  u-component coherence parameters
                   N/A  v-component coherence parameters
                   N/A  w-component coherence parameters
       N/A  Coherence exponent


You have requested that the following file(s) be generated:

   /scratch/jrinker/IOFiles/WP0.75A08V00/WP0.75A08V00_93013.bts (AeroDyn/TurbSim full-field wind file)


Turbulence Simulation Scaling Parameter Summary:

   Turbulence model used                            =  Uniform user-input
   Gradient Richardson number                       =    0.050
   Monin-Obukhov (M-O) z/L parameter                =    0.067
   Monin-Obukhov (M-O) length scale                 =  900.000 m
   Mean wind speed at hub height                    =   14.446 m/s

   Wind profile type                                =  Power law
   Power law exponent                               =    0.200
   Mean shear across rotor disk                     =    0.051 (m/s)/m
   Assumed rotor diameter                           =   56.000 m
   Surface roughness length                         =    0.030 m

   Nyquist frequency of turbulent wind field        =   10.000 Hz

   Number of time steps in the FFT                  =    12600
   Number of time steps output                      =    12600
   Number of points simulated                       =      225


Mean Flow Angles:

   Vertical   =   0.0 degrees
   Horizontal =   0.0 degrees

Mean Wind Speed Profile:

   Height    Wind Speed   Horizontal Angle  Vertical Angle  U-comp (X)   V-comp (Y)   W-comp (Z)
     (m)        (m/s)         (degrees)       (degrees)       (m/s)        (m/s)        (m/s)   
   ------    ----------   ----------------  --------------  ----------   ----------   ----------
     88.0       15.60            0.00            0.00         15.60         0.00         0.00
     84.0       15.45            0.00            0.00         15.45         0.00         0.00
     80.0       15.30            0.00            0.00         15.30         0.00         0.00
     76.0       15.15            0.00            0.00         15.15         0.00         0.00
     72.0       14.98            0.00            0.00         14.98         0.00         0.00
     68.0       14.81            0.00            0.00         14.81         0.00         0.00
     64.0       14.63            0.00            0.00         14.63         0.00         0.00
     60.0       14.45            0.00            0.00         14.45         0.00         0.00
     56.0       14.25            0.00            0.00         14.25         0.00         0.00
     52.0       14.04            0.00            0.00         14.04         0.00         0.00
     48.0       13.82            0.00            0.00         13.82         0.00         0.00
     44.0       13.58            0.00            0.00         13.58         0.00         0.00
     40.0       13.32            0.00            0.00         13.32         0.00         0.00
     36.0       13.04            0.00            0.00         13.04         0.00         0.00
     32.0       12.74            0.00            0.00         12.74         0.00         0.00


Harvested Random Seeds after Generation of the Random Numbers:

   -795228987 Harvested seed # 1
  -1779981112 Harvested seed # 2
   -793787367 Harvested seed # 3
  -1793678093 Harvested seed # 4
   -802110268 Harvested seed # 5
  -1791646495 Harvested seed # 6
   -803879741 Harvested seed # 7
  -1780046679 Harvested seed # 8
   1587134917 Harvested seed # 9
    468135624 Harvested seed #10
    883938073 Harvested seed #11
  -1424608781 Harvested seed #12


Hub-Height Simulated Turbulence Statistical Summary:

   Type of Wind        Min (m/s)   Mean (m/s)    Max (m/s)  Sigma (m/s)       TI (%)
   ----------------    ---------   ----------    ---------  -----------       ------
   Longitudinal (u)        -9.14        14.45        43.47        6.623       45.844
   Lateral (v)            -19.33        -0.00        19.20        5.120       35.440
   Vertical (w)           -12.24         0.00        14.14        3.200       22.151
   U component             -9.14        14.45        43.47        6.623       45.844
   V component            -19.33        -0.00        19.20        5.120       35.440
   W component            -12.24         0.00        14.14        3.200       22.151
   Horizontal (U&V)         0.43        15.50        43.69        6.199       39.988
   Total                    0.88        15.89        43.77        6.052       38.094

                       Min Reynolds     Mean Reynolds    Max Reynolds    Correlation
   Product             Stress (m/s)^2   Stress (m/s)^2   Stress (m/s)^2  Coefficient
   ----------------    --------------   --------------   --------------  -----------
   u'w'                   -221.035            -0.351           175.484        -0.017
   u'v'                   -321.954             1.851           268.718         0.055
   v'w'                   -114.239            -0.358           112.468        -0.022


   Friction Velocity (Ustar)  =      0.592 m/s
   Maximum Instantaneous TKE  =    434.453 (m/s)^2
   Maximum Instantaneous CTKE =    160.996 (m/s)^2


Grid Point Variance Summary:

   Y-coord  -28.00  -24.00  -20.00  -16.00  -12.00   -8.00   -4.00    0.00    4.00    8.00   12.00   16.00   20.00   24.00   28.00

   Height   Standard deviation at grid points for the u component:
    88.00    6.567   6.473   6.692   6.741   6.634   6.600   6.507   6.283   6.288   6.219   6.281   6.212   6.260   6.259   6.224
    84.00    6.628   6.536   6.605   6.775   6.657   6.533   6.385   6.449   6.365   6.340   6.212   6.253   6.295   6.423   6.192
    80.00    6.565   6.586   6.664   6.548   6.534   6.516   6.208   6.402   6.244   6.338   6.303   6.291   6.484   6.576   6.393
    76.00    6.556   6.589   6.582   6.711   6.603   6.661   6.524   6.330   6.386   6.551   6.380   6.332   6.468   6.283   6.424
    72.00    6.471   6.602   6.622   6.674   6.661   6.670   6.390   6.439   6.382   6.468   6.511   6.484   6.523   6.282   6.360
    68.00    6.511   6.581   6.746   6.701   6.752   6.522   6.621   6.649   6.563   6.460   6.564   6.361   6.492   6.419   6.600
    64.00    6.503   6.586   6.577   6.449   6.563   6.651   6.677   6.664   6.634   6.582   6.636   6.560   6.539   6.303   6.445
    60.00    6.380   6.394   6.679   6.762   6.533   6.688   6.653   6.623   6.565   6.590   6.641   6.643   6.502   6.229   6.253
    56.00    6.425   6.363   6.363   6.602   6.633   6.549   6.536   6.465   6.658   6.439   6.462   6.236   6.388   6.290   6.345
    52.00    6.564   6.439   6.596   6.751   6.629   6.661   6.396   6.456   6.622   6.541   6.422   6.377   6.353   6.219   6.445
    48.00    6.634   6.577   6.662   6.673   6.705   6.563   6.553   6.577   6.595   6.491   6.439   6.443   6.420   6.528   6.365
    44.00    6.624   6.843   6.984   6.708   6.402   6.454   6.363   6.515   6.570   6.377   6.416   6.428   6.479   6.344   6.360
    40.00    6.387   6.692   6.774   6.541   6.621   6.430   6.234   6.390   6.446   6.219   6.443   6.309   6.491   6.513   6.411
    36.00    6.424   6.450   6.385   6.441   6.547   6.543   6.348   6.336   6.143   6.312   6.124   6.103   6.113   6.235   6.260
    32.00    6.401   6.498   6.508   6.423   6.531   6.541   6.330   6.240   6.246   5.996   6.138   6.067   5.986   6.075   6.144

   Height   Standard deviation at grid points for the v component:
    88.00    5.120   5.120   5.120   5.120   5.120   5.120   5.120   5.120   5.120   5.120   5.120   5.120   5.120   5.120   5.120
    84.00    5.120   5.120   5.120   5.120   5.120   5.120   5.120   5.120   5.120   5.120   5.120   5.120   5.120   5.120   5.120
    80.00    5.120   5.120   5.120   5.120   5.120   5.120   5.120   5.120   5.120   5.120   5.120   5.120   5.120   5.120   5.120
    76.00    5.120   5.120   5.120   5.120   5.120   5.120   5.120   5.120   5.120   5.120   5.120   5.120   5.120   5.120   5.120
    72.00    5.120   5.120   5.120   5.120   5.120   5.120   5.120   5.120   5.120   5.120   5.120   5.120   5.120   5.120   5.120
    68.00    5.120   5.120   5.120   5.120   5.120   5.120   5.120   5.120   5.120   5.120   5.120   5.120   5.120   5.120   5.120
    64.00    5.120   5.120   5.120   5.120   5.120   5.120   5.120   5.120   5.120   5.120   5.120   5.120   5.120   5.120   5.120
    60.00    5.120   5.120   5.120   5.120   5.120   5.120   5.120   5.120   5.120   5.120   5.120   5.120   5.120   5.120   5.120
    56.00    5.120   5.120   5.120   5.120   5.120   5.120   5.120   5.120   5.120   5.120   5.120   5.120   5.120   5.120   5.120
    52.00    5.120   5.120   5.120   5.120   5.120   5.120   5.120   5.120   5.120   5.120   5.120   5.120   5.120   5.120   5.120
    48.00    5.120   5.120   5.120   5.120   5.120   5.120   5.120   5.120   5.120   5.120   5.120   5.120   5.120   5.120   5.120
    44.00    5.120   5.120   5.120   5.120   5.120   5.120   5.120   5.120   5.120   5.120   5.120   5.120   5.120   5.120   5.120
    40.00    5.120   5.120   5.120   5.120   5.120   5.120   5.120   5.120   5.120   5.120   5.120   5.120   5.120   5.120   5.120
    36.00    5.120   5.120   5.120   5.120   5.120   5.120   5.120   5.120   5.120   5.120   5.120   5.120   5.120   5.120   5.120
    32.00    5.120   5.120   5.120   5.120   5.120   5.120   5.120   5.120   5.120   5.120   5.120   5.120   5.120   5.120   5.120

   Height   Standard deviation at grid points for the w component:
    88.00    3.200   3.200   3.200   3.200   3.200   3.200   3.200   3.200   3.200   3.200   3.200   3.200   3.200   3.200   3.200
    84.00    3.200   3.200   3.200   3.200   3.200   3.200   3.200   3.200   3.200   3.200   3.200   3.200   3.200   3.200   3.200
    80.00    3.200   3.200   3.200   3.200   3.200   3.200   3.200   3.200   3.200   3.200   3.200   3.200   3.200   3.200   3.200
    76.00    3.200   3.200   3.200   3.200   3.200   3.200   3.200   3.200   3.200   3.200   3.200   3.200   3.200   3.200   3.200
    72.00    3.200   3.200   3.200   3.200   3.200   3.200   3.200   3.200   3.200   3.200   3.200   3.200   3.200   3.200   3.200
    68.00    3.200   3.200   3.200   3.200   3.200   3.200   3.200   3.200   3.200   3.200   3.200   3.200   3.200   3.200   3.200
    64.00    3.200   3.200   3.200   3.200   3.200   3.200   3.200   3.200   3.200   3.200   3.200   3.200   3.200   3.200   3.200
    60.00    3.200   3.200   3.200   3.200   3.200   3.200   3.200   3.200   3.200   3.200   3.200   3.200   3.200   3.200   3.200
    56.00    3.200   3.200   3.200   3.200   3.200   3.200   3.200   3.200   3.200   3.200   3.200   3.200   3.200   3.200   3.200
    52.00    3.200   3.200   3.200   3.200   3.200   3.200   3.200   3.200   3.200   3.200   3.200   3.200   3.200   3.200   3.200
    48.00    3.200   3.200   3.200   3.200   3.200   3.200   3.200   3.200   3.200   3.200   3.200   3.200   3.200   3.200   3.200
    44.00    3.200   3.200   3.200   3.200   3.200   3.200   3.200   3.200   3.200   3.200   3.200   3.200   3.200   3.200   3.200
    40.00    3.200   3.200   3.200   3.200   3.200   3.200   3.200   3.200   3.200   3.200   3.200   3.200   3.200   3.200   3.200
    36.00    3.200   3.200   3.200   3.200   3.200   3.200   3.200   3.200   3.200   3.200   3.200   3.200   3.200   3.200   3.200
    32.00    3.200   3.200   3.200   3.200   3.200   3.200   3.200   3.200   3.200   3.200   3.200   3.200   3.200   3.200   3.200

   Mean standard deviation across all grid points:
      u component:    6.469 m/s
      v component:    5.120 m/s
      w component:    3.200 m/s


U-component (X) statistics from the interpolated hub point:

   Mean =  14.4461 m/s
   TI   =  45.8437 %


Processing complete.  22.776 CPU seconds used.
