
This summary file was generated by TurbSim (v2.00.01a-bjj, 14-Oct-2014) on 25-Oct-2015 at 13:01:10.


Runtime Options:

2136770360  Random seed #1
 156304540  Random seed #2
         F  Output binary HH turbulence parameters?
         F  Output formatted turbulence parameters?
         F  Output AeroDyn HH files?
         T  Output AeroDyn FF files?
         F  Output BLADED FF files?
         F  Output tower data?
         F  Output formatted FF files?
         F  Output coherent turbulence time step file?
         T  Clockwise rotation when looking downwind?
 0 -  NONE  IEC turbulence models scaled to exact specified standard deviation


Turbine/Model Specifications:

        17  Vertical grid-point matrix dimension
        17  Horizontal grid-point matrix dimension
     0.050  Time step [seconds]
   630.000  Analysis time [seconds]
   630.000  Usable output time [seconds]
    84.000  Hub height [m]
    80.000  Grid height [m]
    80.000  Grid width [m]
     0.000  Vertical flow angle [degrees]
     0.000  Horizontal flow angle [degrees]


Meteorological Boundary Conditions:

    USRINP  Uniform user-input spectral model
       N/A  IEC standard
       N/A  IEC turbulence characteristic
       N/A  IEC turbulence type
       N/A  IEC Extreme Turbulence Model (ETM) "c" parameter [m/s]
       PL   Wind profile type
   100.000  Reference height [m]
    19.000  Reference wind speed [m/s]
       N/A  Jet height [m]
     0.200  Power law exponent
     0.030  Surface roughness length [m]


Non-IEC Meteorological Boundary Conditions:

    45.000  Site latitude [degrees]
     0.050  Gradient Richardson number
     0.900  Friction or shear velocity [m/s]
       N/A  Mixing layer depth [m]
       N/A  Mean hub u'w' Reynolds stress
       N/A  Mean hub u'v' Reynolds stress
       N/A  Mean hub v'w' Reynolds stress


Spatial Coherence Models:

       IEC  u-component coherence model
      NONE  v-component coherence model
      NONE  w-component coherence model
(   12.000, 0.353E-03)  u-component coherence parameters
                   N/A  v-component coherence parameters
                   N/A  w-component coherence parameters
       N/A  Coherence exponent


You have requested that the following file(s) be generated:

   /scratch/jrinker/IOFiles/WP1.5A08V03/WP1.5A08V03_a1230.bts (AeroDyn/TurbSim full-field wind file)


Turbulence Simulation Scaling Parameter Summary:

   Turbulence model used                            =  Uniform user-input
   Gradient Richardson number                       =    0.050
   Monin-Obukhov (M-O) z/L parameter                =    0.067
   Monin-Obukhov (M-O) length scale                 = 1260.000 m
   Mean wind speed at hub height                    =   18.349 m/s

   Wind profile type                                =  Power law
   Power law exponent                               =    0.200
   Mean shear across rotor disk                     =    0.046 (m/s)/m
   Assumed rotor diameter                           =   80.000 m
   Surface roughness length                         =    0.030 m

   Nyquist frequency of turbulent wind field        =   10.000 Hz

   Number of time steps in the FFT                  =    12600
   Number of time steps output                      =    12600
   Number of points simulated                       =      289


Mean Flow Angles:

   Vertical   =   0.0 degrees
   Horizontal =   0.0 degrees

Mean Wind Speed Profile:

   Height    Wind Speed   Horizontal Angle  Vertical Angle  U-comp (X)   V-comp (Y)   W-comp (Z)
     (m)        (m/s)         (degrees)       (degrees)       (m/s)        (m/s)        (m/s)   
   ------    ----------   ----------------  --------------  ----------   ----------   ----------
    124.0       19.84            0.00            0.00         19.84         0.00         0.00
    119.0       19.67            0.00            0.00         19.67         0.00         0.00
    114.0       19.50            0.00            0.00         19.50         0.00         0.00
    109.0       19.33            0.00            0.00         19.33         0.00         0.00
    104.0       19.15            0.00            0.00         19.15         0.00         0.00
     99.0       18.96            0.00            0.00         18.96         0.00         0.00
     94.0       18.77            0.00            0.00         18.77         0.00         0.00
     89.0       18.56            0.00            0.00         18.56         0.00         0.00
     84.0       18.35            0.00            0.00         18.35         0.00         0.00
     79.0       18.13            0.00            0.00         18.13         0.00         0.00
     74.0       17.89            0.00            0.00         17.89         0.00         0.00
     69.0       17.64            0.00            0.00         17.64         0.00         0.00
     64.0       17.38            0.00            0.00         17.38         0.00         0.00
     59.0       17.10            0.00            0.00         17.10         0.00         0.00
     54.0       16.80            0.00            0.00         16.80         0.00         0.00
     49.0       16.47            0.00            0.00         16.47         0.00         0.00
     44.0       16.12            0.00            0.00         16.12         0.00         0.00


Harvested Random Seeds after Generation of the Random Numbers:

   2145748977 Harvested seed # 1
    151585835 Harvested seed # 2
   2144241500 Harvested seed # 3
    165217320 Harvested seed # 4
   2131396464 Harvested seed # 5
    154404068 Harvested seed # 6
   2134345666 Harvested seed # 7
    155124863 Harvested seed # 8
    786803441 Harvested seed # 9
   1862888747 Harvested seed #10
    734975324 Harvested seed #11
  -1126611416 Harvested seed #12


Hub-Height Simulated Turbulence Statistical Summary:

   Type of Wind        Min (m/s)   Mean (m/s)    Max (m/s)  Sigma (m/s)       TI (%)
   ----------------    ---------   ----------    ---------  -----------       ------
   Longitudinal (u)         6.05        18.35        30.00        3.343       18.217
   Lateral (v)            -11.62        -0.00        13.76        3.041       16.571
   Vertical (w)            -7.52         0.00         8.99        1.899       10.352
   U component              6.05        18.35        30.00        3.343       18.217
   V component            -11.62        -0.00        13.76        3.041       16.571
   W component             -7.52         0.00         8.99        1.899       10.352
   Horizontal (U&V)         6.38        18.61        30.60        3.283       17.639
   Total                    6.85        18.71        30.60        3.265       17.449

                       Min Reynolds     Mean Reynolds    Max Reynolds    Correlation
   Product             Stress (m/s)^2   Stress (m/s)^2   Stress (m/s)^2  Coefficient
   ----------------    --------------   --------------   --------------  -----------
   u'w'                    -59.659            -0.018            46.993        -0.003
   u'v'                   -103.207             0.858            75.717         0.084
   v'w'                    -49.277             0.040            61.607         0.007


   Friction Velocity (Ustar)  =      0.134 m/s
   Maximum Instantaneous TKE  =    105.809 (m/s)^2
   Maximum Instantaneous CTKE =     53.596 (m/s)^2


Grid Point Variance Summary:

   Y-coord  -40.00  -35.00  -30.00  -25.00  -20.00  -15.00  -10.00   -5.00    0.00    5.00   10.00   15.00   20.00   25.00   30.00   35.00   40.00

   Height   Standard deviation at grid points for the u component:
   124.00    3.576   3.551   3.507   3.512   3.545   3.714   3.746   3.617   3.590   3.607   3.439   3.569   3.472   3.521   3.625   3.826   4.021
   119.00    3.634   3.539   3.541   3.476   3.500   3.476   3.675   3.468   3.599   3.612   3.517   3.448   3.649   3.585   3.870   4.036   3.900
   114.00    3.572   3.419   3.524   3.374   3.332   3.391   3.494   3.392   3.371   3.414   3.453   3.545   3.563   3.670   3.798   3.899   3.976
   109.00    3.514   3.523   3.483   3.422   3.384   3.473   3.535   3.435   3.397   3.596   3.513   3.679   3.620   3.674   3.800   3.855   3.912
   104.00    3.477   3.515   3.534   3.632   3.426   3.533   3.575   3.510   3.589   3.694   3.641   3.607   3.584   3.688   3.819   3.992   3.935
    99.00    3.558   3.444   3.354   3.573   3.490   3.503   3.709   3.583   3.674   3.669   3.661   3.661   3.618   3.794   4.116   4.067   4.179
    94.00    3.593   3.450   3.450   3.412   3.286   3.448   3.674   3.692   3.728   3.705   3.705   3.644   3.676   3.900   4.019   4.031   4.036
    89.00    3.431   3.673   3.580   3.534   3.491   3.419   3.464   3.546   3.548   3.499   3.530   3.508   3.593   3.969   3.955   3.838   4.108
    84.00    3.820   3.714   3.672   3.551   3.487   3.411   3.467   3.423   3.343   3.552   3.430   3.640   3.700   3.881   4.031   4.126   4.213
    79.00    3.804   3.747   3.820   3.683   3.301   3.404   3.411   3.353   3.465   3.392   3.463   3.650   3.686   3.718   4.104   4.197   4.153
    74.00    3.653   3.729   3.800   3.771   3.623   3.477   3.327   3.430   3.650   3.386   3.525   3.590   3.659   3.861   4.058   4.062   4.125
    69.00    3.633   3.587   3.699   3.713   3.490   3.158   3.243   3.420   3.546   3.410   3.433   3.362   3.481   3.640   3.779   3.710   3.989
    64.00    3.809   3.619   3.607   3.459   3.304   3.189   3.183   3.323   3.359   3.262   3.457   3.416   3.646   3.690   3.705   3.763   3.690
    59.00    3.776   3.546   3.572   3.329   3.227   3.271   3.419   3.396   3.325   3.169   3.476   3.609   3.598   3.644   3.896   3.904   3.706
    54.00    3.661   3.671   3.476   3.428   3.408   3.351   3.490   3.469   3.453   3.267   3.255   3.463   3.731   3.788   3.723   3.778   3.623
    49.00    3.785   3.601   3.450   3.514   3.577   3.604   3.521   3.507   3.418   3.494   3.438   3.510   3.519   3.607   3.538   3.668   3.689
    44.00    3.800   3.603   3.545   3.726   3.793   3.588   3.365   3.439   3.372   3.356   3.410   3.433   3.537   3.511   3.466   3.551   3.466

   Height   Standard deviation at grid points for the v component:
   124.00    3.041   3.041   3.041   3.041   3.041   3.041   3.041   3.041   3.041   3.041   3.041   3.041   3.041   3.041   3.041   3.041   3.041
   119.00    3.041   3.041   3.041   3.041   3.041   3.041   3.041   3.041   3.041   3.041   3.041   3.041   3.041   3.041   3.041   3.041   3.041
   114.00    3.041   3.041   3.041   3.041   3.041   3.041   3.041   3.041   3.041   3.041   3.041   3.041   3.041   3.041   3.041   3.041   3.041
   109.00    3.041   3.041   3.041   3.041   3.041   3.041   3.041   3.041   3.041   3.041   3.041   3.041   3.041   3.041   3.041   3.041   3.041
   104.00    3.041   3.041   3.041   3.041   3.041   3.041   3.041   3.041   3.041   3.041   3.041   3.041   3.041   3.041   3.041   3.041   3.041
    99.00    3.041   3.041   3.041   3.041   3.041   3.041   3.041   3.041   3.041   3.041   3.041   3.041   3.041   3.041   3.041   3.041   3.041
    94.00    3.041   3.041   3.041   3.041   3.041   3.041   3.041   3.041   3.041   3.041   3.041   3.041   3.041   3.041   3.041   3.041   3.041
    89.00    3.041   3.041   3.041   3.041   3.041   3.041   3.041   3.041   3.041   3.041   3.041   3.041   3.041   3.041   3.041   3.041   3.041
    84.00    3.041   3.041   3.041   3.041   3.041   3.041   3.041   3.041   3.041   3.041   3.041   3.041   3.041   3.041   3.041   3.041   3.041
    79.00    3.041   3.041   3.041   3.041   3.041   3.041   3.041   3.041   3.041   3.041   3.041   3.041   3.041   3.041   3.041   3.041   3.041
    74.00    3.041   3.041   3.041   3.041   3.041   3.041   3.041   3.041   3.041   3.041   3.041   3.041   3.041   3.041   3.041   3.041   3.041
    69.00    3.041   3.041   3.041   3.041   3.041   3.041   3.041   3.041   3.041   3.041   3.041   3.041   3.041   3.041   3.041   3.041   3.041
    64.00    3.041   3.041   3.041   3.041   3.041   3.041   3.041   3.041   3.041   3.041   3.041   3.041   3.041   3.041   3.041   3.041   3.041
    59.00    3.041   3.041   3.041   3.041   3.041   3.041   3.041   3.041   3.041   3.041   3.041   3.041   3.041   3.041   3.041   3.041   3.041
    54.00    3.041   3.041   3.041   3.041   3.041   3.041   3.041   3.041   3.041   3.041   3.041   3.041   3.041   3.041   3.041   3.041   3.041
    49.00    3.041   3.041   3.041   3.041   3.041   3.041   3.041   3.041   3.041   3.041   3.041   3.041   3.041   3.041   3.041   3.041   3.041
    44.00    3.041   3.041   3.041   3.041   3.041   3.041   3.041   3.041   3.041   3.041   3.041   3.041   3.041   3.041   3.041   3.041   3.041

   Height   Standard deviation at grid points for the w component:
   124.00    1.899   1.899   1.899   1.899   1.899   1.899   1.899   1.899   1.899   1.899   1.899   1.899   1.899   1.899   1.899   1.899   1.899
   119.00    1.899   1.899   1.899   1.899   1.899   1.899   1.899   1.899   1.899   1.899   1.899   1.899   1.899   1.899   1.899   1.899   1.899
   114.00    1.899   1.899   1.899   1.899   1.899   1.899   1.899   1.899   1.899   1.899   1.899   1.899   1.899   1.899   1.899   1.899   1.899
   109.00    1.899   1.899   1.899   1.899   1.899   1.899   1.899   1.899   1.899   1.899   1.899   1.899   1.899   1.899   1.899   1.899   1.899
   104.00    1.899   1.899   1.899   1.899   1.899   1.899   1.899   1.899   1.899   1.899   1.899   1.899   1.899   1.899   1.899   1.899   1.899
    99.00    1.899   1.899   1.899   1.899   1.899   1.899   1.899   1.899   1.899   1.899   1.899   1.899   1.899   1.899   1.899   1.899   1.899
    94.00    1.899   1.899   1.899   1.899   1.899   1.899   1.899   1.899   1.899   1.899   1.899   1.899   1.899   1.899   1.899   1.899   1.899
    89.00    1.899   1.899   1.899   1.899   1.899   1.899   1.899   1.899   1.899   1.899   1.899   1.899   1.899   1.899   1.899   1.899   1.899
    84.00    1.899   1.899   1.899   1.899   1.899   1.899   1.899   1.899   1.899   1.899   1.899   1.899   1.899   1.899   1.899   1.899   1.899
    79.00    1.899   1.899   1.899   1.899   1.899   1.899   1.899   1.899   1.899   1.899   1.899   1.899   1.899   1.899   1.899   1.899   1.899
    74.00    1.899   1.899   1.899   1.899   1.899   1.899   1.899   1.899   1.899   1.899   1.899   1.899   1.899   1.899   1.899   1.899   1.899
    69.00    1.899   1.899   1.899   1.899   1.899   1.899   1.899   1.899   1.899   1.899   1.899   1.899   1.899   1.899   1.899   1.899   1.899
    64.00    1.899   1.899   1.899   1.899   1.899   1.899   1.899   1.899   1.899   1.899   1.899   1.899   1.899   1.899   1.899   1.899   1.899
    59.00    1.899   1.899   1.899   1.899   1.899   1.899   1.899   1.899   1.899   1.899   1.899   1.899   1.899   1.899   1.899   1.899   1.899
    54.00    1.899   1.899   1.899   1.899   1.899   1.899   1.899   1.899   1.899   1.899   1.899   1.899   1.899   1.899   1.899   1.899   1.899
    49.00    1.899   1.899   1.899   1.899   1.899   1.899   1.899   1.899   1.899   1.899   1.899   1.899   1.899   1.899   1.899   1.899   1.899
    44.00    1.899   1.899   1.899   1.899   1.899   1.899   1.899   1.899   1.899   1.899   1.899   1.899   1.899   1.899   1.899   1.899   1.899

   Mean standard deviation across all grid points:
      u component:    3.599 m/s
      v component:    3.041 m/s
      w component:    1.899 m/s


U-component (X) statistics from the interpolated hub point:

   Mean =  18.3489 m/s
   TI   =  18.2171 %


Processing complete.  45.039 CPU seconds used.
