
This summary file was generated by TurbSim (v2.00.01a-bjj, 14-Oct-2014) on 25-Oct-2015 at 12:55:00.


Runtime Options:

-340110749  Random seed #1
-744102234  Random seed #2
         F  Output binary HH turbulence parameters?
         F  Output formatted turbulence parameters?
         F  Output AeroDyn HH files?
         T  Output AeroDyn FF files?
         F  Output BLADED FF files?
         F  Output tower data?
         F  Output formatted FF files?
         F  Output coherent turbulence time step file?
         T  Clockwise rotation when looking downwind?
 0 -  NONE  IEC turbulence models scaled to exact specified standard deviation


Turbine/Model Specifications:

        17  Vertical grid-point matrix dimension
        17  Horizontal grid-point matrix dimension
     0.050  Time step [seconds]
   630.000  Analysis time [seconds]
   630.000  Usable output time [seconds]
    84.000  Hub height [m]
    80.000  Grid height [m]
    80.000  Grid width [m]
     0.000  Vertical flow angle [degrees]
     0.000  Horizontal flow angle [degrees]


Meteorological Boundary Conditions:

    USRINP  Uniform user-input spectral model
       N/A  IEC standard
       N/A  IEC turbulence characteristic
       N/A  IEC turbulence type
       N/A  IEC Extreme Turbulence Model (ETM) "c" parameter [m/s]
       PL   Wind profile type
   100.000  Reference height [m]
     7.000  Reference wind speed [m/s]
       N/A  Jet height [m]
     0.200  Power law exponent
     0.030  Surface roughness length [m]


Non-IEC Meteorological Boundary Conditions:

    45.000  Site latitude [degrees]
     0.050  Gradient Richardson number
     0.332  Friction or shear velocity [m/s]
       N/A  Mixing layer depth [m]
       N/A  Mean hub u'w' Reynolds stress
       N/A  Mean hub u'v' Reynolds stress
       N/A  Mean hub v'w' Reynolds stress


Spatial Coherence Models:

       IEC  u-component coherence model
      NONE  v-component coherence model
      NONE  w-component coherence model
(   12.000, 0.353E-03)  u-component coherence parameters
                   N/A  v-component coherence parameters
                   N/A  w-component coherence parameters
       N/A  Coherence exponent


You have requested that the following file(s) be generated:

   /scratch/jrinker/IOFiles/WP1.5A08V03/WP1.5A08V03_13103.bts (AeroDyn/TurbSim full-field wind file)


Turbulence Simulation Scaling Parameter Summary:

   Turbulence model used                            =  Uniform user-input
   Gradient Richardson number                       =    0.050
   Monin-Obukhov (M-O) z/L parameter                =    0.067
   Monin-Obukhov (M-O) length scale                 = 1260.000 m
   Mean wind speed at hub height                    =    6.760 m/s

   Wind profile type                                =  Power law
   Power law exponent                               =    0.200
   Mean shear across rotor disk                     =    0.017 (m/s)/m
   Assumed rotor diameter                           =   80.000 m
   Surface roughness length                         =    0.030 m

   Nyquist frequency of turbulent wind field        =   10.000 Hz

   Number of time steps in the FFT                  =    12600
   Number of time steps output                      =    12600
   Number of points simulated                       =      289


Mean Flow Angles:

   Vertical   =   0.0 degrees
   Horizontal =   0.0 degrees

Mean Wind Speed Profile:

   Height    Wind Speed   Horizontal Angle  Vertical Angle  U-comp (X)   V-comp (Y)   W-comp (Z)
     (m)        (m/s)         (degrees)       (degrees)       (m/s)        (m/s)        (m/s)   
   ------    ----------   ----------------  --------------  ----------   ----------   ----------
    124.0        7.31            0.00            0.00          7.31         0.00         0.00
    119.0        7.25            0.00            0.00          7.25         0.00         0.00
    114.0        7.19            0.00            0.00          7.19         0.00         0.00
    109.0        7.12            0.00            0.00          7.12         0.00         0.00
    104.0        7.06            0.00            0.00          7.06         0.00         0.00
     99.0        6.99            0.00            0.00          6.99         0.00         0.00
     94.0        6.91            0.00            0.00          6.91         0.00         0.00
     89.0        6.84            0.00            0.00          6.84         0.00         0.00
     84.0        6.76            0.00            0.00          6.76         0.00         0.00
     79.0        6.68            0.00            0.00          6.68         0.00         0.00
     74.0        6.59            0.00            0.00          6.59         0.00         0.00
     69.0        6.50            0.00            0.00          6.50         0.00         0.00
     64.0        6.40            0.00            0.00          6.40         0.00         0.00
     59.0        6.30            0.00            0.00          6.30         0.00         0.00
     54.0        6.19            0.00            0.00          6.19         0.00         0.00
     49.0        6.07            0.00            0.00          6.07         0.00         0.00
     44.0        5.94            0.00            0.00          5.94         0.00         0.00


Harvested Random Seeds after Generation of the Random Numbers:

   -345419185 Harvested seed # 1
   -743512454 Harvested seed # 2
   -349744475 Harvested seed # 3
   -744757678 Harvested seed # 4
   -349285794 Harvested seed # 5
   -747575574 Harvested seed # 6
   -349482249 Harvested seed # 7
   -739645901 Harvested seed # 8
    694805839 Harvested seed # 9
  -1280407942 Harvested seed #10
    153576869 Harvested seed #11
     -6602926 Harvested seed #12


Hub-Height Simulated Turbulence Statistical Summary:

   Type of Wind        Min (m/s)   Mean (m/s)    Max (m/s)  Sigma (m/s)       TI (%)
   ----------------    ---------   ----------    ---------  -----------       ------
   Longitudinal (u)        -2.45         6.76        15.12        2.637       39.013
   Lateral (v)             -7.68         0.00         8.05        2.240       33.129
   Vertical (w)            -4.58        -0.00         5.12        1.400       20.708
   U component             -2.45         6.76        15.12        2.637       39.013
   V component             -7.68         0.00         8.05        2.240       33.129
   W component             -4.58        -0.00         5.12        1.400       20.708
   Horizontal (U&V)         0.27         7.15        15.28        2.550       35.645
   Total                    0.46         7.31        15.28        2.493       34.115

                       Min Reynolds     Mean Reynolds    Max Reynolds    Correlation
   Product             Stress (m/s)^2   Stress (m/s)^2   Stress (m/s)^2  Coefficient
   ----------------    --------------   --------------   --------------  -----------
   u'w'                    -25.472             0.403            30.587         0.109
   u'v'                    -42.530            -0.248            30.302        -0.042
   v'w'                    -24.145             0.035            27.136         0.011


   Friction Velocity (Ustar)  =      0.635 m/s
   Maximum Instantaneous TKE  =     43.979 (m/s)^2
   Maximum Instantaneous CTKE =     21.273 (m/s)^2


Grid Point Variance Summary:

   Y-coord  -40.00  -35.00  -30.00  -25.00  -20.00  -15.00  -10.00   -5.00    0.00    5.00   10.00   15.00   20.00   25.00   30.00   35.00   40.00

   Height   Standard deviation at grid points for the u component:
   124.00    2.924   3.018   2.829   2.663   2.717   2.938   2.737   2.941   3.016   3.155   3.060   2.841   2.985   3.044   3.045   3.160   3.002
   119.00    2.971   2.873   2.822   2.788   2.823   2.876   2.777   2.865   2.961   3.120   3.040   2.891   2.984   2.984   3.091   3.009   2.961
   114.00    2.832   3.038   2.883   2.815   2.898   2.966   2.847   2.906   2.904   2.929   3.180   2.992   2.794   2.907   3.012   2.893   2.997
   109.00    2.951   2.997   2.958   2.831   2.752   2.771   2.743   2.868   2.850   2.911   3.047   2.742   2.586   2.858   2.836   2.773   2.741
   104.00    2.915   2.946   2.743   2.854   2.694   2.739   2.736   2.732   2.767   2.771   2.794   2.641   2.645   2.770   2.866   2.788   2.830
    99.00    2.900   2.749   2.708   2.889   2.839   2.911   2.814   2.813   2.620   2.630   2.535   2.551   2.656   2.826   2.708   2.760   2.851
    94.00    2.849   2.706   2.716   2.799   2.824   2.841   2.834   2.805   2.625   2.563   2.514   2.497   2.474   2.543   2.618   2.813   2.754
    89.00    2.806   2.883   2.915   2.809   2.734   2.755   2.915   2.660   2.564   2.433   2.439   2.447   2.306   2.521   2.679   2.752   2.648
    84.00    2.726   2.727   2.713   2.765   2.803   2.758   2.803   2.699   2.637   2.480   2.476   2.480   2.568   2.608   2.614   2.814   2.833
    79.00    2.700   2.793   2.705   2.656   2.713   2.720   2.738   2.814   2.683   2.665   2.613   2.556   2.612   2.682   2.696   2.706   2.767
    74.00    2.745   2.687   2.795   2.625   2.634   2.604   2.757   2.843   2.653   2.661   2.592   2.613   2.627   2.740   2.793   2.757   2.577
    69.00    2.881   2.819   2.900   2.654   2.619   2.661   2.759   2.709   2.639   2.550   2.601   2.676   2.764   2.713   2.601   2.778   2.719
    64.00    2.834   2.792   2.721   2.613   2.700   2.741   2.749   2.752   2.579   2.674   2.745   2.701   2.819   2.785   2.672   2.623   2.750
    59.00    2.756   2.762   2.655   2.546   2.466   2.717   2.802   2.675   2.618   2.841   2.771   2.928   2.969   2.851   2.720   2.700   2.774
    54.00    2.807   2.656   2.537   2.530   2.593   2.844   2.820   2.724   2.878   2.983   2.917   2.896   2.910   2.804   2.799   2.828   2.842
    49.00    2.821   2.827   2.729   2.711   2.827   2.791   2.922   2.746   2.831   3.032   3.111   2.912   2.891   2.989   2.869   3.067   3.012
    44.00    2.800   2.929   3.015   3.034   2.925   2.901   3.004   3.032   2.870   2.954   2.898   2.884   2.978   3.005   3.009   2.930   3.034

   Height   Standard deviation at grid points for the v component:
   124.00    2.240   2.240   2.240   2.240   2.240   2.240   2.240   2.240   2.240   2.240   2.240   2.240   2.240   2.240   2.240   2.240   2.240
   119.00    2.240   2.240   2.240   2.240   2.240   2.240   2.240   2.240   2.240   2.240   2.240   2.240   2.240   2.240   2.240   2.240   2.240
   114.00    2.240   2.240   2.240   2.240   2.240   2.240   2.240   2.240   2.240   2.240   2.240   2.240   2.240   2.240   2.240   2.240   2.240
   109.00    2.240   2.240   2.240   2.240   2.240   2.240   2.240   2.240   2.240   2.240   2.240   2.240   2.240   2.240   2.240   2.240   2.240
   104.00    2.240   2.240   2.240   2.240   2.240   2.240   2.240   2.240   2.240   2.240   2.240   2.240   2.240   2.240   2.240   2.240   2.240
    99.00    2.240   2.240   2.240   2.240   2.240   2.240   2.240   2.240   2.240   2.240   2.240   2.240   2.240   2.240   2.240   2.240   2.240
    94.00    2.240   2.240   2.240   2.240   2.240   2.240   2.240   2.240   2.240   2.240   2.240   2.240   2.240   2.240   2.240   2.240   2.240
    89.00    2.240   2.240   2.240   2.240   2.240   2.240   2.240   2.240   2.240   2.240   2.240   2.240   2.240   2.240   2.240   2.240   2.240
    84.00    2.240   2.240   2.240   2.240   2.240   2.240   2.240   2.240   2.240   2.240   2.240   2.240   2.240   2.240   2.240   2.240   2.240
    79.00    2.240   2.240   2.240   2.240   2.240   2.240   2.240   2.240   2.240   2.240   2.240   2.240   2.240   2.240   2.240   2.240   2.240
    74.00    2.240   2.240   2.240   2.240   2.240   2.240   2.240   2.240   2.240   2.240   2.240   2.240   2.240   2.240   2.240   2.240   2.240
    69.00    2.240   2.240   2.240   2.240   2.240   2.240   2.240   2.240   2.240   2.240   2.240   2.240   2.240   2.240   2.240   2.240   2.240
    64.00    2.240   2.240   2.240   2.240   2.240   2.240   2.240   2.240   2.240   2.240   2.240   2.240   2.240   2.240   2.240   2.240   2.240
    59.00    2.240   2.240   2.240   2.240   2.240   2.240   2.240   2.240   2.240   2.240   2.240   2.240   2.240   2.240   2.240   2.240   2.240
    54.00    2.240   2.240   2.240   2.240   2.240   2.240   2.240   2.240   2.240   2.240   2.240   2.240   2.240   2.240   2.240   2.240   2.240
    49.00    2.240   2.240   2.240   2.240   2.240   2.240   2.240   2.240   2.240   2.240   2.240   2.240   2.240   2.240   2.240   2.240   2.240
    44.00    2.240   2.240   2.240   2.240   2.240   2.240   2.240   2.240   2.240   2.240   2.240   2.240   2.240   2.240   2.240   2.240   2.240

   Height   Standard deviation at grid points for the w component:
   124.00    1.400   1.400   1.400   1.400   1.400   1.400   1.400   1.400   1.400   1.400   1.400   1.400   1.400   1.400   1.400   1.400   1.400
   119.00    1.400   1.400   1.400   1.400   1.400   1.400   1.400   1.400   1.400   1.400   1.400   1.400   1.400   1.400   1.400   1.400   1.400
   114.00    1.400   1.400   1.400   1.400   1.400   1.400   1.400   1.400   1.400   1.400   1.400   1.400   1.400   1.400   1.400   1.400   1.400
   109.00    1.400   1.400   1.400   1.400   1.400   1.400   1.400   1.400   1.400   1.400   1.400   1.400   1.400   1.400   1.400   1.400   1.400
   104.00    1.400   1.400   1.400   1.400   1.400   1.400   1.400   1.400   1.400   1.400   1.400   1.400   1.400   1.400   1.400   1.400   1.400
    99.00    1.400   1.400   1.400   1.400   1.400   1.400   1.400   1.400   1.400   1.400   1.400   1.400   1.400   1.400   1.400   1.400   1.400
    94.00    1.400   1.400   1.400   1.400   1.400   1.400   1.400   1.400   1.400   1.400   1.400   1.400   1.400   1.400   1.400   1.400   1.400
    89.00    1.400   1.400   1.400   1.400   1.400   1.400   1.400   1.400   1.400   1.400   1.400   1.400   1.400   1.400   1.400   1.400   1.400
    84.00    1.400   1.400   1.400   1.400   1.400   1.400   1.400   1.400   1.400   1.400   1.400   1.400   1.400   1.400   1.400   1.400   1.400
    79.00    1.400   1.400   1.400   1.400   1.400   1.400   1.400   1.400   1.400   1.400   1.400   1.400   1.400   1.400   1.400   1.400   1.400
    74.00    1.400   1.400   1.400   1.400   1.400   1.400   1.400   1.400   1.400   1.400   1.400   1.400   1.400   1.400   1.400   1.400   1.400
    69.00    1.400   1.400   1.400   1.400   1.400   1.400   1.400   1.400   1.400   1.400   1.400   1.400   1.400   1.400   1.400   1.400   1.400
    64.00    1.400   1.400   1.400   1.400   1.400   1.400   1.400   1.400   1.400   1.400   1.400   1.400   1.400   1.400   1.400   1.400   1.400
    59.00    1.400   1.400   1.400   1.400   1.400   1.400   1.400   1.400   1.400   1.400   1.400   1.400   1.400   1.400   1.400   1.400   1.400
    54.00    1.400   1.400   1.400   1.400   1.400   1.400   1.400   1.400   1.400   1.400   1.400   1.400   1.400   1.400   1.400   1.400   1.400
    49.00    1.400   1.400   1.400   1.400   1.400   1.400   1.400   1.400   1.400   1.400   1.400   1.400   1.400   1.400   1.400   1.400   1.400
    44.00    1.400   1.400   1.400   1.400   1.400   1.400   1.400   1.400   1.400   1.400   1.400   1.400   1.400   1.400   1.400   1.400   1.400

   Mean standard deviation across all grid points:
      u component:    2.787 m/s
      v component:    2.240 m/s
      w component:    1.400 m/s


U-component (X) statistics from the interpolated hub point:

   Mean =   6.7601 m/s
   TI   =  39.0131 %


Processing complete.  64.867 CPU seconds used.
