
This summary file was generated by TurbSim (v2.00.01a-bjj, 14-Oct-2014) on 08-Apr-2015 at 09:31:05.


Runtime Options:

    123456  Random seed #1
    789012  Random seed #2
         F  Output binary HH turbulence parameters?
         F  Output formatted turbulence parameters?
         F  Output AeroDyn HH files?
         T  Output AeroDyn FF files?
         T  Output BLADED FF files?
         F  Output tower data?
         F  Output formatted FF files?
         F  Output coherent turbulence time step file?
         T  Clockwise rotation when looking downwind?
 0 -  NONE  IEC turbulence models scaled to exact specified standard deviation


Turbine/Model Specifications:

         5  Vertical grid-point matrix dimension
         5  Horizontal grid-point matrix dimension
     0.050  Time step [seconds]
   600.050  Analysis time [seconds]
   600.050  Usable output time [seconds]
    90.000  Hub height [m]
   140.000  Grid height [m]
   140.000  Grid width [m]
     0.000  Vertical flow angle [degrees]
     0.000  Horizontal flow angle [degrees]


Meteorological Boundary Conditions:

    IECKAI  IEC Kaimal spectral model
         1  IEC standard: IEC 61400-1 Ed. 3: 2005
         C  IEC turbulence characteristic
       NTM  IEC Normal Turbulence Model
       N/A  IEC Extreme Turbulence Model (ETM) "c" parameter [m/s]
       IEC  Wind profile type
    90.000  Reference height [m]
    10.000  Reference wind speed [m/s]
       N/A  Jet height [m]
     0.200  Power law exponent
     0.030  Surface roughness length [m]


Non-IEC Meteorological Boundary Conditions:

       N/A  Site latitude [degrees]
       N/A  Gradient Richardson number
       N/A  Friction or shear velocity [m/s]
       N/A  Mixing layer depth [m]
       N/A  Mean hub u'w' Reynolds stress
       N/A  Mean hub u'v' Reynolds stress
       N/A  Mean hub v'w' Reynolds stress


Spatial Coherence Models:

       IEC  u-component coherence model
      NONE  v-component coherence model
      NONE  w-component coherence model
(   12.000, 0.353E-03)  u-component coherence parameters
                   N/A  v-component coherence parameters
                   N/A  w-component coherence parameters
       N/A  Coherence exponent


You have requested that the following file(s) be generated:

   5pts_NoSc.bts (AeroDyn/TurbSim full-field wind file)
   5pts_NoSc.wnd (AeroDyn/BLADED full-field wnd file)


Turbulence Simulation Scaling Parameter Summary:

   Turbulence model used                            =  IEC Kaimal
   Turbulence characteristic                        =  C
   IEC turbulence type                              =  Normal Turbulence Model
   IEC standard                                     =  IEC 61400-1 Ed. 3: 2005
   Mean wind speed at hub height                    =   10.000 m/s
   Expected value of turbulence intensity at 15 m/s =   12.000%
   Characteristic value of standard deviation       =    1.572 m/s
   Turbulence scale                                 =   42.000 m
   u-component integral scale                       =  340.200 m
   Coherency scale                                  =  340.200 m
   Characteristic value of hub turbulence intensity =   15.720%
   Gradient Richardson number                       =    0.000

   Wind profile type                                =  Power law on rotor disk, logarithmic elsewhere
   Power law exponent                               =    0.200
   Mean shear across rotor disk                     =    0.027 (m/s)/m
   Assumed rotor diameter                           =  140.000 m
   Surface roughness length                         =    0.030 m

   Nyquist frequency of turbulent wind field        =   10.000 Hz

   Number of time steps in the FFT                  =    12002
   Number of time steps output                      =    12002
   Number of points simulated                       =       25


Mean Flow Angles:

   Vertical   =   0.0 degrees
   Horizontal =   0.0 degrees

Mean Wind Speed Profile:

   Height    Wind Speed   Horizontal Angle  Vertical Angle  U-comp (X)   V-comp (Y)   W-comp (Z)
     (m)        (m/s)         (degrees)       (degrees)       (m/s)        (m/s)        (m/s)   
   ------    ----------   ----------------  --------------  ----------   ----------   ----------
    160.0       11.22            0.00            0.00         11.22         0.00         0.00
    125.0       10.68            0.00            0.00         10.68         0.00         0.00
     90.0       10.00            0.00            0.00         10.00         0.00         0.00
     55.0        9.06            0.00            0.00          9.06         0.00         0.00
     20.0        7.40            0.00            0.00          7.40         0.00         0.00


Harvested Random Seeds after Generation of the Random Numbers:

      4645502 Harvested seed # 1
      9308804 Harvested seed # 2
      9036509 Harvested seed # 3
     10422887 Harvested seed # 4
      7725723 Harvested seed # 5
       723505 Harvested seed # 6
       189152 Harvested seed # 7
     13306451 Harvested seed # 8
    105309310 Harvested seed # 9
    697200004 Harvested seed #10
   1149861597 Harvested seed #11
   -241191321 Harvested seed #12


Hub-Height Simulated Turbulence Statistical Summary:

   Type of Wind        Min (m/s)   Mean (m/s)    Max (m/s)  Sigma (m/s)       TI (%)
   ----------------    ---------   ----------    ---------  -----------       ------
   Longitudinal (u)         5.90        10.00        14.61        1.223       12.228
   Lateral (v)             -3.95         0.00         3.71        1.226       12.261
   Vertical (w)            -3.39         0.00         2.62        0.769        7.693
   U component              5.90        10.00        14.61        1.223       12.228
   V component             -3.95         0.00         3.71        1.226       12.261
   W component             -3.39         0.00         2.62        0.769        7.693
   Horizontal (U&V)         5.95        10.07        15.01        1.223       12.138
   Total                    5.95        10.10        15.05        1.222       12.092

                       Min Reynolds     Mean Reynolds    Max Reynolds    Correlation
   Product             Stress (m/s)^2   Stress (m/s)^2   Stress (m/s)^2  Coefficient
   ----------------    --------------   --------------   --------------  -----------
   u'w'                     -6.147            -0.017             5.918        -0.018
   u'v'                    -17.649            -0.346             7.224        -0.231
   v'w'                     -7.992             0.026             5.793         0.028


   Friction Velocity (Ustar)  =      0.131 m/s
   Maximum Instantaneous TKE  =     18.414 (m/s)^2
   Maximum Instantaneous CTKE =      9.435 (m/s)^2


Grid Point Variance Summary:

   Y-coord  -70.00  -35.00    0.00   35.00   70.00

   Height   Standard deviation at grid points for the u component:
   160.00    1.550   1.619   1.522   1.378   1.288
   125.00    1.433   1.397   1.194   1.139   1.252
    90.00    1.360   1.331   1.223   1.311   1.351
    55.00    1.388   1.321   1.396   1.515   1.459
    20.00    1.484   1.456   1.404   1.339   1.305

   Height   Standard deviation at grid points for the v component:
   160.00    1.226   1.226   1.226   1.226   1.226
   125.00    1.226   1.226   1.226   1.226   1.226
    90.00    1.226   1.226   1.226   1.226   1.226
    55.00    1.226   1.226   1.226   1.226   1.226
    20.00    1.226   1.226   1.226   1.226   1.226

   Height   Standard deviation at grid points for the w component:
   160.00    0.769   0.769   0.769   0.769   0.769
   125.00    0.769   0.769   0.769   0.769   0.769
    90.00    0.769   0.769   0.769   0.769   0.769
    55.00    0.769   0.769   0.769   0.769   0.769
    20.00    0.769   0.769   0.769   0.769   0.769

   Mean standard deviation across all grid points:
      u component:    1.377 m/s
      v component:    1.226 m/s
      w component:    0.769 m/s


U-component (X) statistics from the interpolated hub point:

   Mean =  10.0000 m/s
   TI   =  12.2284 %


Normalizing Parameters for Binary Data (approximate statistics):

   UBar  =  10.0000 m/s
   TI(u) =  12.2284 %
   TI(v) =  12.2607 %
   TI(w) =   7.6928 %

   Height Offset =   0.0000 m
   Grid Base     =  20.0000 m

Creating a PERIODIC output file.


Processing complete.  0.86395 CPU seconds used.
