
This summary file was generated by TurbSim (v2.00.01a-bjj, 14-Oct-2014) on 17-Jan-2016 at 17:47:23.


Runtime Options:

 745114648  Random seed #1
-154794614  Random seed #2
         F  Output binary HH turbulence parameters?
         F  Output formatted turbulence parameters?
         F  Output AeroDyn HH files?
         T  Output AeroDyn FF files?
         F  Output BLADED FF files?
         F  Output tower data?
         F  Output formatted FF files?
         F  Output coherent turbulence time step file?
         T  Clockwise rotation when looking downwind?
 0 -  NONE  IEC turbulence models scaled to exact specified standard deviation


Turbine/Model Specifications:

        17  Vertical grid-point matrix dimension
        17  Horizontal grid-point matrix dimension
     0.050  Time step [seconds]
   630.000  Analysis time [seconds]
   630.000  Usable output time [seconds]
   119.000  Hub height [m]
   120.000  Grid height [m]
   120.000  Grid width [m]
     0.000  Vertical flow angle [degrees]
     0.000  Horizontal flow angle [degrees]


Meteorological Boundary Conditions:

    USRINP  Uniform user-input spectral model
       N/A  IEC standard
       N/A  IEC turbulence characteristic
       N/A  IEC turbulence type
       N/A  IEC Extreme Turbulence Model (ETM) "c" parameter [m/s]
       PL   Wind profile type
   100.000  Reference height [m]
     6.600  Reference wind speed [m/s]
       N/A  Jet height [m]
     0.200  Power law exponent
     0.030  Surface roughness length [m]


Non-IEC Meteorological Boundary Conditions:

    45.000  Site latitude [degrees]
     0.050  Gradient Richardson number
     0.313  Friction or shear velocity [m/s]
       N/A  Mixing layer depth [m]
       N/A  Mean hub u'w' Reynolds stress
       N/A  Mean hub u'v' Reynolds stress
       N/A  Mean hub v'w' Reynolds stress


Spatial Coherence Models:

       IEC  u-component coherence model
      NONE  v-component coherence model
      NONE  w-component coherence model
(   12.000, 0.353E-03)  u-component coherence parameters
                   N/A  v-component coherence parameters
                   N/A  w-component coherence parameters
       N/A  Coherence exponent


You have requested that the following file(s) be generated:

   WP3.0A02V02\WP3.0A02V02_1.bts (AeroDyn/TurbSim full-field wind file)


Turbulence Simulation Scaling Parameter Summary:

   Turbulence model used                            =  Uniform user-input
   Gradient Richardson number                       =    0.050
   Monin-Obukhov (M-O) z/L parameter                =    0.067
   Monin-Obukhov (M-O) length scale                 = 1785.000 m
   Mean wind speed at hub height                    =    6.834 m/s

   Wind profile type                                =  Power law
   Power law exponent                               =    0.200
   Mean shear across rotor disk                     =    0.012 (m/s)/m
   Assumed rotor diameter                           =  120.000 m
   Surface roughness length                         =    0.030 m

   Nyquist frequency of turbulent wind field        =   10.000 Hz

   Number of time steps in the FFT                  =    12600
   Number of time steps output                      =    12600
   Number of points simulated                       =      289


Mean Flow Angles:

   Vertical   =   0.0 degrees
   Horizontal =   0.0 degrees

Mean Wind Speed Profile:

   Height    Wind Speed   Horizontal Angle  Vertical Angle  U-comp (X)   V-comp (Y)   W-comp (Z)
     (m)        (m/s)         (degrees)       (degrees)       (m/s)        (m/s)        (m/s)   
   ------    ----------   ----------------  --------------  ----------   ----------   ----------
    179.0        7.42            0.00            0.00          7.42         0.00         0.00
    171.5        7.35            0.00            0.00          7.35         0.00         0.00
    164.0        7.29            0.00            0.00          7.29         0.00         0.00
    156.5        7.22            0.00            0.00          7.22         0.00         0.00
    149.0        7.15            0.00            0.00          7.15         0.00         0.00
    141.5        7.07            0.00            0.00          7.07         0.00         0.00
    134.0        7.00            0.00            0.00          7.00         0.00         0.00
    126.5        6.92            0.00            0.00          6.92         0.00         0.00
    119.0        6.83            0.00            0.00          6.83         0.00         0.00
    111.5        6.75            0.00            0.00          6.75         0.00         0.00
    104.0        6.65            0.00            0.00          6.65         0.00         0.00
     96.5        6.55            0.00            0.00          6.55         0.00         0.00
     89.0        6.45            0.00            0.00          6.45         0.00         0.00
     81.5        6.34            0.00            0.00          6.34         0.00         0.00
     74.0        6.21            0.00            0.00          6.21         0.00         0.00
     66.5        6.08            0.00            0.00          6.08         0.00         0.00
     59.0        5.94            0.00            0.00          5.94         0.00         0.00


Harvested Random Seeds after Generation of the Random Numbers:

       790330 Harvested seed # 1
    307301209 Harvested seed # 2


Hub-Height Simulated Turbulence Statistical Summary:

   Type of Wind        Min (m/s)   Mean (m/s)    Max (m/s)  Sigma (m/s)       TI (%)
   ----------------    ---------   ----------    ---------  -----------       ------
   Longitudinal (u)         0.23         6.83        12.95        2.034       29.767
   Lateral (v)             -5.78         0.00         5.58        1.680       24.586
   Vertical (w)            -4.39        -0.00         3.30        1.050       15.365
   U component              0.23         6.83        12.95        2.034       29.767
   V component             -5.78         0.00         5.58        1.680       24.586
   W component             -4.39        -0.00         3.30        1.050       15.365
   Horizontal (U&V)         0.80         7.07        13.33        1.932       27.346
   Total                    0.89         7.15        13.38        1.913       26.767

                       Min Reynolds     Mean Reynolds    Max Reynolds    Correlation
   Product             Stress (m/s)^2   Stress (m/s)^2   Stress (m/s)^2  Coefficient
   ----------------    --------------   --------------   --------------  -----------
   u'w'                    -10.770             0.282            20.700         0.132
   u'v'                    -28.263            -0.166            24.269        -0.049
   v'w'                    -21.488            -0.165             9.920        -0.094


   Friction Velocity (Ustar)  =      0.531 m/s
   Maximum Instantaneous TKE  =     34.998 (m/s)^2
   Maximum Instantaneous CTKE =     19.995 (m/s)^2


Grid Point Variance Summary:

   Y-coord  -60.00  -52.50  -45.00  -37.50  -30.00  -22.50  -15.00   -7.50    0.00    7.50   15.00   22.50   30.00   37.50   45.00   52.50   60.00

   Height   Standard deviation at grid points for the u component:
   179.00    1.975   2.020   2.038   1.968   2.099   1.936   1.978   2.083   2.277   2.145   2.255   2.393   2.369   2.462   2.349   2.438   2.483
   171.50    2.082   2.046   1.975   2.026   2.016   1.890   1.917   1.956   2.040   2.117   2.141   2.192   2.180   2.186   2.305   2.450   2.467
   164.00    1.916   1.929   1.977   2.086   1.852   1.770   1.883   2.020   2.021   2.066   2.132   2.142   2.161   2.101   2.274   2.377   2.537
   156.50    1.771   1.935   1.934   1.939   1.986   1.795   1.812   1.898   2.017   2.053   1.974   1.872   1.981   1.947   2.260   2.335   2.452
   149.00    1.774   1.662   1.894   1.869   1.814   1.840   1.784   1.849   1.988   1.719   1.780   1.898   1.683   2.012   2.260   2.344   2.514
   141.50    1.760   1.625   1.913   1.802   1.823   1.938   1.912   1.798   1.812   1.713   1.725   1.787   1.832   1.928   2.175   2.326   2.345
   134.00    1.930   1.907   1.837   1.876   1.808   2.037   1.769   1.776   1.885   1.744   1.774   1.870   1.729   1.987   2.052   1.974   2.177
   126.50    1.871   1.981   1.824   1.998   1.938   1.802   1.699   1.778   1.772   1.854   1.852   2.025   1.798   2.095   2.237   2.154   2.221
   119.00    1.994   1.946   2.020   2.014   1.925   1.911   1.872   1.899   2.034   1.772   1.988   2.042   2.018   2.172   1.975   1.968   2.104
   111.50    2.023   1.972   2.162   2.105   1.955   1.981   2.007   1.959   1.866   1.836   2.075   2.056   2.138   1.949   1.937   2.059   1.991
   104.00    1.989   2.047   2.128   2.236   2.072   2.021   2.120   1.912   2.016   1.900   1.974   2.098   2.270   1.998   1.924   1.974   1.943
    96.50    1.976   2.148   2.020   2.352   2.213   2.182   2.089   2.182   2.101   2.028   2.043   2.025   2.041   2.091   2.014   1.856   1.784
    89.00    2.192   2.180   2.063   2.183   2.267   2.296   2.154   2.115   1.926   1.965   2.126   2.039   2.083   2.079   2.008   1.937   1.820
    81.50    2.125   2.130   2.222   2.104   2.055   2.110   1.973   1.825   2.004   2.028   2.038   2.160   2.279   2.284   2.181   2.094   1.921
    74.00    2.212   2.158   1.904   1.962   1.837   2.041   2.048   2.042   2.206   2.145   2.049   2.162   2.079   2.294   2.327   2.180   1.935
    66.50    2.181   2.133   1.951   1.898   2.024   2.020   2.074   2.071   2.303   2.076   2.108   2.239   2.220   2.383   2.233   2.288   2.114
    59.00    2.101   1.976   2.137   2.167   2.098   2.073   2.122   2.131   2.233   2.332   2.057   2.196   2.086   2.216   2.253   2.366   2.258

   Height   Standard deviation at grid points for the v component:
   179.00    1.680   1.680   1.680   1.680   1.680   1.680   1.680   1.680   1.680   1.680   1.680   1.680   1.680   1.680   1.680   1.680   1.680
   171.50    1.680   1.680   1.680   1.680   1.680   1.680   1.680   1.680   1.680   1.680   1.680   1.680   1.680   1.680   1.680   1.680   1.680
   164.00    1.680   1.680   1.680   1.680   1.680   1.680   1.680   1.680   1.680   1.680   1.680   1.680   1.680   1.680   1.680   1.680   1.680
   156.50    1.680   1.680   1.680   1.680   1.680   1.680   1.680   1.680   1.680   1.680   1.680   1.680   1.680   1.680   1.680   1.680   1.680
   149.00    1.680   1.680   1.680   1.680   1.680   1.680   1.680   1.680   1.680   1.680   1.680   1.680   1.680   1.680   1.680   1.680   1.680
   141.50    1.680   1.680   1.680   1.680   1.680   1.680   1.680   1.680   1.680   1.680   1.680   1.680   1.680   1.680   1.680   1.680   1.680
   134.00    1.680   1.680   1.680   1.680   1.680   1.680   1.680   1.680   1.680   1.680   1.680   1.680   1.680   1.680   1.680   1.680   1.680
   126.50    1.680   1.680   1.680   1.680   1.680   1.680   1.680   1.680   1.680   1.680   1.680   1.680   1.680   1.680   1.680   1.680   1.680
   119.00    1.680   1.680   1.680   1.680   1.680   1.680   1.680   1.680   1.680   1.680   1.680   1.680   1.680   1.680   1.680   1.680   1.680
   111.50    1.680   1.680   1.680   1.680   1.680   1.680   1.680   1.680   1.680   1.680   1.680   1.680   1.680   1.680   1.680   1.680   1.680
   104.00    1.680   1.680   1.680   1.680   1.680   1.680   1.680   1.680   1.680   1.680   1.680   1.680   1.680   1.680   1.680   1.680   1.680
    96.50    1.680   1.680   1.680   1.680   1.680   1.680   1.680   1.680   1.680   1.680   1.680   1.680   1.680   1.680   1.680   1.680   1.680
    89.00    1.680   1.680   1.680   1.680   1.680   1.680   1.680   1.680   1.680   1.680   1.680   1.680   1.680   1.680   1.680   1.680   1.680
    81.50    1.680   1.680   1.680   1.680   1.680   1.680   1.680   1.680   1.680   1.680   1.680   1.680   1.680   1.680   1.680   1.680   1.680
    74.00    1.680   1.680   1.680   1.680   1.680   1.680   1.680   1.680   1.680   1.680   1.680   1.680   1.680   1.680   1.680   1.680   1.680
    66.50    1.680   1.680   1.680   1.680   1.680   1.680   1.680   1.680   1.680   1.680   1.680   1.680   1.680   1.680   1.680   1.680   1.680
    59.00    1.680   1.680   1.680   1.680   1.680   1.680   1.680   1.680   1.680   1.680   1.680   1.680   1.680   1.680   1.680   1.680   1.680

   Height   Standard deviation at grid points for the w component:
   179.00    1.050   1.050   1.050   1.050   1.050   1.050   1.050   1.050   1.050   1.050   1.050   1.050   1.050   1.050   1.050   1.050   1.050
   171.50    1.050   1.050   1.050   1.050   1.050   1.050   1.050   1.050   1.050   1.050   1.050   1.050   1.050   1.050   1.050   1.050   1.050
   164.00    1.050   1.050   1.050   1.050   1.050   1.050   1.050   1.050   1.050   1.050   1.050   1.050   1.050   1.050   1.050   1.050   1.050
   156.50    1.050   1.050   1.050   1.050   1.050   1.050   1.050   1.050   1.050   1.050   1.050   1.050   1.050   1.050   1.050   1.050   1.050
   149.00    1.050   1.050   1.050   1.050   1.050   1.050   1.050   1.050   1.050   1.050   1.050   1.050   1.050   1.050   1.050   1.050   1.050
   141.50    1.050   1.050   1.050   1.050   1.050   1.050   1.050   1.050   1.050   1.050   1.050   1.050   1.050   1.050   1.050   1.050   1.050
   134.00    1.050   1.050   1.050   1.050   1.050   1.050   1.050   1.050   1.050   1.050   1.050   1.050   1.050   1.050   1.050   1.050   1.050
   126.50    1.050   1.050   1.050   1.050   1.050   1.050   1.050   1.050   1.050   1.050   1.050   1.050   1.050   1.050   1.050   1.050   1.050
   119.00    1.050   1.050   1.050   1.050   1.050   1.050   1.050   1.050   1.050   1.050   1.050   1.050   1.050   1.050   1.050   1.050   1.050
   111.50    1.050   1.050   1.050   1.050   1.050   1.050   1.050   1.050   1.050   1.050   1.050   1.050   1.050   1.050   1.050   1.050   1.050
   104.00    1.050   1.050   1.050   1.050   1.050   1.050   1.050   1.050   1.050   1.050   1.050   1.050   1.050   1.050   1.050   1.050   1.050
    96.50    1.050   1.050   1.050   1.050   1.050   1.050   1.050   1.050   1.050   1.050   1.050   1.050   1.050   1.050   1.050   1.050   1.050
    89.00    1.050   1.050   1.050   1.050   1.050   1.050   1.050   1.050   1.050   1.050   1.050   1.050   1.050   1.050   1.050   1.050   1.050
    81.50    1.050   1.050   1.050   1.050   1.050   1.050   1.050   1.050   1.050   1.050   1.050   1.050   1.050   1.050   1.050   1.050   1.050
    74.00    1.050   1.050   1.050   1.050   1.050   1.050   1.050   1.050   1.050   1.050   1.050   1.050   1.050   1.050   1.050   1.050   1.050
    66.50    1.050   1.050   1.050   1.050   1.050   1.050   1.050   1.050   1.050   1.050   1.050   1.050   1.050   1.050   1.050   1.050   1.050
    59.00    1.050   1.050   1.050   1.050   1.050   1.050   1.050   1.050   1.050   1.050   1.050   1.050   1.050   1.050   1.050   1.050   1.050

   Mean standard deviation across all grid points:
      u component:    2.040 m/s
      v component:    1.680 m/s
      w component:    1.050 m/s


U-component (X) statistics from the interpolated hub point:

   Mean =   6.8337 m/s
   TI   =  29.7667 %


Processing complete.  13.525 CPU seconds used.
