
This summary file was generated by TurbSim (v2.00.01a-bjj, 14-Oct-2014) on 14-Jan-2016 at 10:36:34.


Runtime Options:

 745114648  Random seed #1
-154794614  Random seed #2
         F  Output binary HH turbulence parameters?
         F  Output formatted turbulence parameters?
         F  Output AeroDyn HH files?
         T  Output AeroDyn FF files?
         F  Output BLADED FF files?
         F  Output tower data?
         F  Output formatted FF files?
         F  Output coherent turbulence time step file?
         T  Clockwise rotation when looking downwind?
 0 -  NONE  IEC turbulence models scaled to exact specified standard deviation


Turbine/Model Specifications:

        17  Vertical grid-point matrix dimension
        17  Horizontal grid-point matrix dimension
     0.050  Time step [seconds]
   630.000  Analysis time [seconds]
   630.000  Usable output time [seconds]
   119.000  Hub height [m]
   120.000  Grid height [m]
   120.000  Grid width [m]
     0.000  Vertical flow angle [degrees]
     0.000  Horizontal flow angle [degrees]


Meteorological Boundary Conditions:

    USRINP  Uniform user-input spectral model
       N/A  IEC standard
       N/A  IEC turbulence characteristic
       N/A  IEC turbulence type
       N/A  IEC Extreme Turbulence Model (ETM) "c" parameter [m/s]
       PL   Wind profile type
   100.000  Reference height [m]
    14.200  Reference wind speed [m/s]
       N/A  Jet height [m]
     0.200  Power law exponent
     0.030  Surface roughness length [m]


Non-IEC Meteorological Boundary Conditions:

    45.000  Site latitude [degrees]
     0.050  Gradient Richardson number
     0.673  Friction or shear velocity [m/s]
       N/A  Mixing layer depth [m]
       N/A  Mean hub u'w' Reynolds stress
       N/A  Mean hub u'v' Reynolds stress
       N/A  Mean hub v'w' Reynolds stress


Spatial Coherence Models:

       IEC  u-component coherence model
      NONE  v-component coherence model
      NONE  w-component coherence model
(   12.000, 0.353E-03)  u-component coherence parameters
                   N/A  v-component coherence parameters
                   N/A  w-component coherence parameters
       N/A  Coherence exponent


You have requested that the following file(s) be generated:

   WP3.0A02V02\WP3.0A02V02_0.bts (AeroDyn/TurbSim full-field wind file)


Turbulence Simulation Scaling Parameter Summary:

   Turbulence model used                            =  Uniform user-input
   Gradient Richardson number                       =    0.050
   Monin-Obukhov (M-O) z/L parameter                =    0.067
   Monin-Obukhov (M-O) length scale                 = 1785.000 m
   Mean wind speed at hub height                    =   14.703 m/s

   Wind profile type                                =  Power law
   Power law exponent                               =    0.200
   Mean shear across rotor disk                     =    0.026 (m/s)/m
   Assumed rotor diameter                           =  120.000 m
   Surface roughness length                         =    0.030 m

   Nyquist frequency of turbulent wind field        =   10.000 Hz

   Number of time steps in the FFT                  =    12600
   Number of time steps output                      =    12600
   Number of points simulated                       =      289


Mean Flow Angles:

   Vertical   =   0.0 degrees
   Horizontal =   0.0 degrees

Mean Wind Speed Profile:

   Height    Wind Speed   Horizontal Angle  Vertical Angle  U-comp (X)   V-comp (Y)   W-comp (Z)
     (m)        (m/s)         (degrees)       (degrees)       (m/s)        (m/s)        (m/s)   
   ------    ----------   ----------------  --------------  ----------   ----------   ----------
    179.0       15.95            0.00            0.00         15.95         0.00         0.00
    171.5       15.82            0.00            0.00         15.82         0.00         0.00
    164.0       15.68            0.00            0.00         15.68         0.00         0.00
    156.5       15.53            0.00            0.00         15.53         0.00         0.00
    149.0       15.38            0.00            0.00         15.38         0.00         0.00
    141.5       15.22            0.00            0.00         15.22         0.00         0.00
    134.0       15.06            0.00            0.00         15.06         0.00         0.00
    126.5       14.88            0.00            0.00         14.88         0.00         0.00
    119.0       14.70            0.00            0.00         14.70         0.00         0.00
    111.5       14.51            0.00            0.00         14.51         0.00         0.00
    104.0       14.31            0.00            0.00         14.31         0.00         0.00
     96.5       14.10            0.00            0.00         14.10         0.00         0.00
     89.0       13.87            0.00            0.00         13.87         0.00         0.00
     81.5       13.63            0.00            0.00         13.63         0.00         0.00
     74.0       13.37            0.00            0.00         13.37         0.00         0.00
     66.5       13.09            0.00            0.00         13.09         0.00         0.00
     59.0       12.78            0.00            0.00         12.78         0.00         0.00


Harvested Random Seeds after Generation of the Random Numbers:

       790330 Harvested seed # 1
    307301209 Harvested seed # 2


Hub-Height Simulated Turbulence Statistical Summary:

   Type of Wind        Min (m/s)   Mean (m/s)    Max (m/s)  Sigma (m/s)       TI (%)
   ----------------    ---------   ----------    ---------  -----------       ------
   Longitudinal (u)         7.98        14.70        20.64        2.137       14.537
   Lateral (v)             -6.10         0.00         5.57        1.680       11.426
   Vertical (w)            -3.50         0.00         3.38        1.050        7.141
   U component              7.98        14.70        20.64        2.137       14.537
   V component             -6.10         0.00         5.57        1.680       11.426
   W component             -3.50         0.00         3.38        1.050        7.141
   Horizontal (U&V)         8.29        14.80        20.67        2.110       14.253
   Total                    8.29        14.84        20.70        2.105       14.183

                       Min Reynolds     Mean Reynolds    Max Reynolds    Correlation
   Product             Stress (m/s)^2   Stress (m/s)^2   Stress (m/s)^2  Coefficient
   ----------------    --------------   --------------   --------------  -----------
   u'w'                    -11.320             0.087            17.356         0.039
   u'v'                    -21.697            -0.246            27.682        -0.069
   v'w'                    -11.923            -0.115            10.848        -0.065


   Friction Velocity (Ustar)  =      0.295 m/s
   Maximum Instantaneous TKE  =     30.602 (m/s)^2
   Maximum Instantaneous CTKE =     14.134 (m/s)^2


Grid Point Variance Summary:

   Y-coord  -60.00  -52.50  -45.00  -37.50  -30.00  -22.50  -15.00   -7.50    0.00    7.50   15.00   22.50   30.00   37.50   45.00   52.50   60.00

   Height   Standard deviation at grid points for the u component:
   179.00    2.182   2.150   2.095   2.084   2.118   1.987   1.994   2.083   2.245   2.161   2.237   2.340   2.301   2.374   2.280   2.350   2.401
   171.50    2.141   2.118   2.105   2.086   2.086   2.058   2.028   1.974   2.077   2.125   2.116   2.155   2.120   2.207   2.242   2.282   2.352
   164.00    2.005   2.012   2.103   2.171   1.953   1.921   1.939   2.013   2.017   2.064   2.135   2.117   2.100   2.090   2.176   2.243   2.408
   156.50    1.923   1.996   2.078   2.077   2.060   1.942   1.953   1.955   2.026   2.035   2.032   1.919   2.016   1.996   2.239   2.306   2.363
   149.00    1.946   1.892   1.992   2.058   1.920   1.972   1.932   1.957   2.010   1.872   1.903   1.984   1.865   2.052   2.280   2.274   2.346
   141.50    1.910   1.788   1.999   1.961   1.949   2.097   2.094   1.967   1.923   1.847   1.792   1.948   1.961   2.038   2.181   2.252   2.271
   134.00    1.985   1.966   1.979   1.901   1.917   2.128   1.959   1.910   1.939   1.801   1.868   1.920   1.889   2.060   2.098   2.057   2.200
   126.50    1.949   1.987   1.952   1.935   1.938   1.895   1.870   1.900   1.915   1.920   1.953   2.044   1.989   2.145   2.218   2.168   2.098
   119.00    2.089   2.118   2.073   2.040   1.984   1.979   1.953   2.013   2.137   1.942   1.959   2.053   2.060   2.128   2.032   2.012   2.063
   111.50    2.079   2.131   2.189   2.159   2.055   2.033   2.117   2.075   2.084   1.977   2.099   2.110   2.159   1.981   1.979   2.029   2.004
   104.00    2.036   2.143   2.250   2.276   2.140   2.106   2.135   2.075   2.174   2.102   2.104   2.145   2.268   2.051   1.937   1.958   1.990
    96.50    1.999   2.177   2.140   2.333   2.251   2.150   2.131   2.228   2.145   2.100   2.148   2.130   2.195   2.131   2.065   1.937   1.949
    89.00    2.114   2.163   2.169   2.222   2.262   2.291   2.198   2.151   2.046   2.015   2.152   2.111   2.201   2.132   2.109   1.977   2.024
    81.50    2.054   2.089   2.245   2.191   2.133   2.145   2.064   1.946   2.048   2.105   2.124   2.203   2.256   2.203   2.199   2.069   2.086
    74.00    2.230   2.134   2.053   2.129   2.004   2.098   2.083   2.080   2.177   2.206   2.177   2.197   2.136   2.271   2.223   2.183   2.120
    66.50    2.196   2.193   2.116   2.093   2.179   2.156   2.116   2.170   2.242   2.175   2.141   2.259   2.199   2.281   2.167   2.247   2.109
    59.00    2.100   2.101   2.177   2.270   2.209   2.218   2.195   2.179   2.250   2.248   2.054   2.149   2.124   2.165   2.181   2.233   2.210

   Height   Standard deviation at grid points for the v component:
   179.00    1.680   1.680   1.680   1.680   1.680   1.680   1.680   1.680   1.680   1.680   1.680   1.680   1.680   1.680   1.680   1.680   1.680
   171.50    1.680   1.680   1.680   1.680   1.680   1.680   1.680   1.680   1.680   1.680   1.680   1.680   1.680   1.680   1.680   1.680   1.680
   164.00    1.680   1.680   1.680   1.680   1.680   1.680   1.680   1.680   1.680   1.680   1.680   1.680   1.680   1.680   1.680   1.680   1.680
   156.50    1.680   1.680   1.680   1.680   1.680   1.680   1.680   1.680   1.680   1.680   1.680   1.680   1.680   1.680   1.680   1.680   1.680
   149.00    1.680   1.680   1.680   1.680   1.680   1.680   1.680   1.680   1.680   1.680   1.680   1.680   1.680   1.680   1.680   1.680   1.680
   141.50    1.680   1.680   1.680   1.680   1.680   1.680   1.680   1.680   1.680   1.680   1.680   1.680   1.680   1.680   1.680   1.680   1.680
   134.00    1.680   1.680   1.680   1.680   1.680   1.680   1.680   1.680   1.680   1.680   1.680   1.680   1.680   1.680   1.680   1.680   1.680
   126.50    1.680   1.680   1.680   1.680   1.680   1.680   1.680   1.680   1.680   1.680   1.680   1.680   1.680   1.680   1.680   1.680   1.680
   119.00    1.680   1.680   1.680   1.680   1.680   1.680   1.680   1.680   1.680   1.680   1.680   1.680   1.680   1.680   1.680   1.680   1.680
   111.50    1.680   1.680   1.680   1.680   1.680   1.680   1.680   1.680   1.680   1.680   1.680   1.680   1.680   1.680   1.680   1.680   1.680
   104.00    1.680   1.680   1.680   1.680   1.680   1.680   1.680   1.680   1.680   1.680   1.680   1.680   1.680   1.680   1.680   1.680   1.680
    96.50    1.680   1.680   1.680   1.680   1.680   1.680   1.680   1.680   1.680   1.680   1.680   1.680   1.680   1.680   1.680   1.680   1.680
    89.00    1.680   1.680   1.680   1.680   1.680   1.680   1.680   1.680   1.680   1.680   1.680   1.680   1.680   1.680   1.680   1.680   1.680
    81.50    1.680   1.680   1.680   1.680   1.680   1.680   1.680   1.680   1.680   1.680   1.680   1.680   1.680   1.680   1.680   1.680   1.680
    74.00    1.680   1.680   1.680   1.680   1.680   1.680   1.680   1.680   1.680   1.680   1.680   1.680   1.680   1.680   1.680   1.680   1.680
    66.50    1.680   1.680   1.680   1.680   1.680   1.680   1.680   1.680   1.680   1.680   1.680   1.680   1.680   1.680   1.680   1.680   1.680
    59.00    1.680   1.680   1.680   1.680   1.680   1.680   1.680   1.680   1.680   1.680   1.680   1.680   1.680   1.680   1.680   1.680   1.680

   Height   Standard deviation at grid points for the w component:
   179.00    1.050   1.050   1.050   1.050   1.050   1.050   1.050   1.050   1.050   1.050   1.050   1.050   1.050   1.050   1.050   1.050   1.050
   171.50    1.050   1.050   1.050   1.050   1.050   1.050   1.050   1.050   1.050   1.050   1.050   1.050   1.050   1.050   1.050   1.050   1.050
   164.00    1.050   1.050   1.050   1.050   1.050   1.050   1.050   1.050   1.050   1.050   1.050   1.050   1.050   1.050   1.050   1.050   1.050
   156.50    1.050   1.050   1.050   1.050   1.050   1.050   1.050   1.050   1.050   1.050   1.050   1.050   1.050   1.050   1.050   1.050   1.050
   149.00    1.050   1.050   1.050   1.050   1.050   1.050   1.050   1.050   1.050   1.050   1.050   1.050   1.050   1.050   1.050   1.050   1.050
   141.50    1.050   1.050   1.050   1.050   1.050   1.050   1.050   1.050   1.050   1.050   1.050   1.050   1.050   1.050   1.050   1.050   1.050
   134.00    1.050   1.050   1.050   1.050   1.050   1.050   1.050   1.050   1.050   1.050   1.050   1.050   1.050   1.050   1.050   1.050   1.050
   126.50    1.050   1.050   1.050   1.050   1.050   1.050   1.050   1.050   1.050   1.050   1.050   1.050   1.050   1.050   1.050   1.050   1.050
   119.00    1.050   1.050   1.050   1.050   1.050   1.050   1.050   1.050   1.050   1.050   1.050   1.050   1.050   1.050   1.050   1.050   1.050
   111.50    1.050   1.050   1.050   1.050   1.050   1.050   1.050   1.050   1.050   1.050   1.050   1.050   1.050   1.050   1.050   1.050   1.050
   104.00    1.050   1.050   1.050   1.050   1.050   1.050   1.050   1.050   1.050   1.050   1.050   1.050   1.050   1.050   1.050   1.050   1.050
    96.50    1.050   1.050   1.050   1.050   1.050   1.050   1.050   1.050   1.050   1.050   1.050   1.050   1.050   1.050   1.050   1.050   1.050
    89.00    1.050   1.050   1.050   1.050   1.050   1.050   1.050   1.050   1.050   1.050   1.050   1.050   1.050   1.050   1.050   1.050   1.050
    81.50    1.050   1.050   1.050   1.050   1.050   1.050   1.050   1.050   1.050   1.050   1.050   1.050   1.050   1.050   1.050   1.050   1.050
    74.00    1.050   1.050   1.050   1.050   1.050   1.050   1.050   1.050   1.050   1.050   1.050   1.050   1.050   1.050   1.050   1.050   1.050
    66.50    1.050   1.050   1.050   1.050   1.050   1.050   1.050   1.050   1.050   1.050   1.050   1.050   1.050   1.050   1.050   1.050   1.050
    59.00    1.050   1.050   1.050   1.050   1.050   1.050   1.050   1.050   1.050   1.050   1.050   1.050   1.050   1.050   1.050   1.050   1.050

   Mean standard deviation across all grid points:
      u component:    2.093 m/s
      v component:    1.680 m/s
      w component:    1.050 m/s


U-component (X) statistics from the interpolated hub point:

   Mean =  14.7027 m/s
   TI   =  14.5374 %


Processing complete.  12.823 CPU seconds used.
