
This summary file was generated by TurbSim (v2.00.01a-bjj, 14-Oct-2014) on 14-Jan-2016 at 10:38:19.


Runtime Options:

 -58490046  Random seed #1
-496407563  Random seed #2
         F  Output binary HH turbulence parameters?
         F  Output formatted turbulence parameters?
         F  Output AeroDyn HH files?
         T  Output AeroDyn FF files?
         F  Output BLADED FF files?
         F  Output tower data?
         F  Output formatted FF files?
         F  Output coherent turbulence time step file?
         T  Clockwise rotation when looking downwind?
 0 -  NONE  IEC turbulence models scaled to exact specified standard deviation


Turbine/Model Specifications:

        17  Vertical grid-point matrix dimension
        17  Horizontal grid-point matrix dimension
     0.050  Time step [seconds]
   630.000  Analysis time [seconds]
   630.000  Usable output time [seconds]
   119.000  Hub height [m]
   120.000  Grid height [m]
   120.000  Grid width [m]
     0.000  Vertical flow angle [degrees]
     0.000  Horizontal flow angle [degrees]


Meteorological Boundary Conditions:

    USRINP  Uniform user-input spectral model
       N/A  IEC standard
       N/A  IEC turbulence characteristic
       N/A  IEC turbulence type
       N/A  IEC Extreme Turbulence Model (ETM) "c" parameter [m/s]
       PL   Wind profile type
   100.000  Reference height [m]
    14.200  Reference wind speed [m/s]
       N/A  Jet height [m]
     0.200  Power law exponent
     0.030  Surface roughness length [m]


Non-IEC Meteorological Boundary Conditions:

    45.000  Site latitude [degrees]
     0.050  Gradient Richardson number
     0.673  Friction or shear velocity [m/s]
       N/A  Mixing layer depth [m]
       N/A  Mean hub u'w' Reynolds stress
       N/A  Mean hub u'v' Reynolds stress
       N/A  Mean hub v'w' Reynolds stress


Spatial Coherence Models:

       IEC  u-component coherence model
      NONE  v-component coherence model
      NONE  w-component coherence model
(   12.000, 0.353E-03)  u-component coherence parameters
                   N/A  v-component coherence parameters
                   N/A  w-component coherence parameters
       N/A  Coherence exponent


You have requested that the following file(s) be generated:

   WP3.0A02V02\WP3.0A02V02_1.bts (AeroDyn/TurbSim full-field wind file)


Turbulence Simulation Scaling Parameter Summary:

   Turbulence model used                            =  Uniform user-input
   Gradient Richardson number                       =    0.050
   Monin-Obukhov (M-O) z/L parameter                =    0.067
   Monin-Obukhov (M-O) length scale                 = 1785.000 m
   Mean wind speed at hub height                    =   14.703 m/s

   Wind profile type                                =  Power law
   Power law exponent                               =    0.200
   Mean shear across rotor disk                     =    0.026 (m/s)/m
   Assumed rotor diameter                           =  120.000 m
   Surface roughness length                         =    0.030 m

   Nyquist frequency of turbulent wind field        =   10.000 Hz

   Number of time steps in the FFT                  =    12600
   Number of time steps output                      =    12600
   Number of points simulated                       =      289


Mean Flow Angles:

   Vertical   =   0.0 degrees
   Horizontal =   0.0 degrees

Mean Wind Speed Profile:

   Height    Wind Speed   Horizontal Angle  Vertical Angle  U-comp (X)   V-comp (Y)   W-comp (Z)
     (m)        (m/s)         (degrees)       (degrees)       (m/s)        (m/s)        (m/s)   
   ------    ----------   ----------------  --------------  ----------   ----------   ----------
    179.0       15.95            0.00            0.00         15.95         0.00         0.00
    171.5       15.82            0.00            0.00         15.82         0.00         0.00
    164.0       15.68            0.00            0.00         15.68         0.00         0.00
    156.5       15.53            0.00            0.00         15.53         0.00         0.00
    149.0       15.38            0.00            0.00         15.38         0.00         0.00
    141.5       15.22            0.00            0.00         15.22         0.00         0.00
    134.0       15.06            0.00            0.00         15.06         0.00         0.00
    126.5       14.88            0.00            0.00         14.88         0.00         0.00
    119.0       14.70            0.00            0.00         14.70         0.00         0.00
    111.5       14.51            0.00            0.00         14.51         0.00         0.00
    104.0       14.31            0.00            0.00         14.31         0.00         0.00
     96.5       14.10            0.00            0.00         14.10         0.00         0.00
     89.0       13.87            0.00            0.00         13.87         0.00         0.00
     81.5       13.63            0.00            0.00         13.63         0.00         0.00
     74.0       13.37            0.00            0.00         13.37         0.00         0.00
     66.5       13.09            0.00            0.00         13.09         0.00         0.00
     59.0       12.78            0.00            0.00         12.78         0.00         0.00


Harvested Random Seeds after Generation of the Random Numbers:

   1085576821 Harvested seed # 1
   1091720094 Harvested seed # 2


Hub-Height Simulated Turbulence Statistical Summary:

   Type of Wind        Min (m/s)   Mean (m/s)    Max (m/s)  Sigma (m/s)       TI (%)
   ----------------    ---------   ----------    ---------  -----------       ------
   Longitudinal (u)         9.09        14.70        20.91        1.987       13.512
   Lateral (v)             -6.43        -0.00         5.93        1.680       11.426
   Vertical (w)            -4.68         0.00         3.42        1.050        7.141
   U component              9.09        14.70        20.91        1.987       13.512
   V component             -6.43        -0.00         5.93        1.680       11.426
   W component             -4.68         0.00         3.42        1.050        7.141
   Horizontal (U&V)         9.17        14.80        20.99        1.996       13.486
   Total                    9.21        14.83        21.00        1.992       13.430

                       Min Reynolds     Mean Reynolds    Max Reynolds    Correlation
   Product             Stress (m/s)^2   Stress (m/s)^2   Stress (m/s)^2  Coefficient
   ----------------    --------------   --------------   --------------  -----------
   u'w'                    -10.225            -0.187            11.861        -0.090
   u'v'                    -24.504             0.380            27.583         0.114
   v'w'                    -14.174            -0.068            12.277        -0.039


   Friction Velocity (Ustar)  =      0.433 m/s
   Maximum Instantaneous TKE  =     28.433 (m/s)^2
   Maximum Instantaneous CTKE =     13.802 (m/s)^2


Grid Point Variance Summary:

   Y-coord  -60.00  -52.50  -45.00  -37.50  -30.00  -22.50  -15.00   -7.50    0.00    7.50   15.00   22.50   30.00   37.50   45.00   52.50   60.00

   Height   Standard deviation at grid points for the u component:
   179.00    2.326   2.283   2.184   2.345   2.250   2.410   2.477   2.516   2.512   2.469   2.205   2.105   2.279   2.499   2.444   2.350   2.297
   171.50    2.233   2.168   2.173   2.199   2.326   2.492   2.469   2.438   2.436   2.412   2.398   2.191   2.271   2.328   2.422   2.405   2.349
   164.00    2.155   2.205   2.144   2.277   2.303   2.258   2.311   2.393   2.552   2.336   2.225   2.430   2.376   2.413   2.475   2.408   2.368
   156.50    2.234   2.190   2.275   2.380   2.375   2.310   2.330   2.270   2.391   2.403   2.323   2.392   2.383   2.513   2.413   2.460   2.485
   149.00    2.189   2.229   2.306   2.571   2.513   2.492   2.238   2.280   2.304   2.204   2.337   2.313   2.450   2.527   2.343   2.269   2.365
   141.50    2.118   2.149   2.311   2.370   2.426   2.271   2.210   2.166   2.157   2.227   2.340   2.258   2.437   2.429   2.284   2.112   2.150
   134.00    2.097   2.005   2.223   2.186   2.195   2.191   2.195   2.135   2.148   2.147   2.164   2.261   2.338   2.342   2.236   2.201   2.248
   126.50    2.070   2.086   2.128   2.057   2.061   2.068   1.980   2.069   2.124   2.062   2.015   2.105   2.174   2.188   2.275   2.337   2.282
   119.00    2.008   2.117   2.037   2.112   2.006   1.970   2.041   2.072   1.987   2.011   2.007   2.063   2.119   2.328   2.255   2.268   2.359
   111.50    1.911   2.065   2.179   2.099   2.018   1.938   2.066   2.030   1.934   2.033   2.050   2.103   2.130   2.275   2.279   2.326   2.439
   104.00    2.116   2.088   2.090   1.892   1.974   2.080   2.125   2.001   1.976   2.001   2.029   2.005   2.140   2.229   2.373   2.383   2.504
    96.50    2.042   1.993   1.995   2.028   2.069   2.283   2.070   2.109   2.008   2.095   2.041   1.951   2.063   2.104   2.207   2.325   2.506
    89.00    1.995   1.902   2.048   1.990   2.051   2.191   2.185   2.085   2.006   2.133   1.997   1.964   2.047   2.077   2.313   2.355   2.542
    81.50    2.004   1.929   1.955   2.022   2.049   2.111   2.085   2.045   1.923   2.074   2.049   2.022   2.044   2.212   2.219   2.422   2.565
    74.00    2.060   1.932   2.033   2.108   1.969   1.941   1.997   2.007   1.993   1.894   2.027   1.993   1.952   2.042   2.104   2.269   2.509
    66.50    2.061   2.006   1.961   2.040   2.115   2.032   1.995   1.976   1.859   1.973   2.013   1.838   1.912   2.052   2.196   2.270   2.277
    59.00    2.100   1.971   1.998   2.103   2.028   1.979   1.924   1.931   1.987   1.852   1.882   1.945   1.831   1.858   2.022   2.042   2.067

   Height   Standard deviation at grid points for the v component:
   179.00    1.680   1.680   1.680   1.680   1.680   1.680   1.680   1.680   1.680   1.680   1.680   1.680   1.680   1.680   1.680   1.680   1.680
   171.50    1.680   1.680   1.680   1.680   1.680   1.680   1.680   1.680   1.680   1.680   1.680   1.680   1.680   1.680   1.680   1.680   1.680
   164.00    1.680   1.680   1.680   1.680   1.680   1.680   1.680   1.680   1.680   1.680   1.680   1.680   1.680   1.680   1.680   1.680   1.680
   156.50    1.680   1.680   1.680   1.680   1.680   1.680   1.680   1.680   1.680   1.680   1.680   1.680   1.680   1.680   1.680   1.680   1.680
   149.00    1.680   1.680   1.680   1.680   1.680   1.680   1.680   1.680   1.680   1.680   1.680   1.680   1.680   1.680   1.680   1.680   1.680
   141.50    1.680   1.680   1.680   1.680   1.680   1.680   1.680   1.680   1.680   1.680   1.680   1.680   1.680   1.680   1.680   1.680   1.680
   134.00    1.680   1.680   1.680   1.680   1.680   1.680   1.680   1.680   1.680   1.680   1.680   1.680   1.680   1.680   1.680   1.680   1.680
   126.50    1.680   1.680   1.680   1.680   1.680   1.680   1.680   1.680   1.680   1.680   1.680   1.680   1.680   1.680   1.680   1.680   1.680
   119.00    1.680   1.680   1.680   1.680   1.680   1.680   1.680   1.680   1.680   1.680   1.680   1.680   1.680   1.680   1.680   1.680   1.680
   111.50    1.680   1.680   1.680   1.680   1.680   1.680   1.680   1.680   1.680   1.680   1.680   1.680   1.680   1.680   1.680   1.680   1.680
   104.00    1.680   1.680   1.680   1.680   1.680   1.680   1.680   1.680   1.680   1.680   1.680   1.680   1.680   1.680   1.680   1.680   1.680
    96.50    1.680   1.680   1.680   1.680   1.680   1.680   1.680   1.680   1.680   1.680   1.680   1.680   1.680   1.680   1.680   1.680   1.680
    89.00    1.680   1.680   1.680   1.680   1.680   1.680   1.680   1.680   1.680   1.680   1.680   1.680   1.680   1.680   1.680   1.680   1.680
    81.50    1.680   1.680   1.680   1.680   1.680   1.680   1.680   1.680   1.680   1.680   1.680   1.680   1.680   1.680   1.680   1.680   1.680
    74.00    1.680   1.680   1.680   1.680   1.680   1.680   1.680   1.680   1.680   1.680   1.680   1.680   1.680   1.680   1.680   1.680   1.680
    66.50    1.680   1.680   1.680   1.680   1.680   1.680   1.680   1.680   1.680   1.680   1.680   1.680   1.680   1.680   1.680   1.680   1.680
    59.00    1.680   1.680   1.680   1.680   1.680   1.680   1.680   1.680   1.680   1.680   1.680   1.680   1.680   1.680   1.680   1.680   1.680

   Height   Standard deviation at grid points for the w component:
   179.00    1.050   1.050   1.050   1.050   1.050   1.050   1.050   1.050   1.050   1.050   1.050   1.050   1.050   1.050   1.050   1.050   1.050
   171.50    1.050   1.050   1.050   1.050   1.050   1.050   1.050   1.050   1.050   1.050   1.050   1.050   1.050   1.050   1.050   1.050   1.050
   164.00    1.050   1.050   1.050   1.050   1.050   1.050   1.050   1.050   1.050   1.050   1.050   1.050   1.050   1.050   1.050   1.050   1.050
   156.50    1.050   1.050   1.050   1.050   1.050   1.050   1.050   1.050   1.050   1.050   1.050   1.050   1.050   1.050   1.050   1.050   1.050
   149.00    1.050   1.050   1.050   1.050   1.050   1.050   1.050   1.050   1.050   1.050   1.050   1.050   1.050   1.050   1.050   1.050   1.050
   141.50    1.050   1.050   1.050   1.050   1.050   1.050   1.050   1.050   1.050   1.050   1.050   1.050   1.050   1.050   1.050   1.050   1.050
   134.00    1.050   1.050   1.050   1.050   1.050   1.050   1.050   1.050   1.050   1.050   1.050   1.050   1.050   1.050   1.050   1.050   1.050
   126.50    1.050   1.050   1.050   1.050   1.050   1.050   1.050   1.050   1.050   1.050   1.050   1.050   1.050   1.050   1.050   1.050   1.050
   119.00    1.050   1.050   1.050   1.050   1.050   1.050   1.050   1.050   1.050   1.050   1.050   1.050   1.050   1.050   1.050   1.050   1.050
   111.50    1.050   1.050   1.050   1.050   1.050   1.050   1.050   1.050   1.050   1.050   1.050   1.050   1.050   1.050   1.050   1.050   1.050
   104.00    1.050   1.050   1.050   1.050   1.050   1.050   1.050   1.050   1.050   1.050   1.050   1.050   1.050   1.050   1.050   1.050   1.050
    96.50    1.050   1.050   1.050   1.050   1.050   1.050   1.050   1.050   1.050   1.050   1.050   1.050   1.050   1.050   1.050   1.050   1.050
    89.00    1.050   1.050   1.050   1.050   1.050   1.050   1.050   1.050   1.050   1.050   1.050   1.050   1.050   1.050   1.050   1.050   1.050
    81.50    1.050   1.050   1.050   1.050   1.050   1.050   1.050   1.050   1.050   1.050   1.050   1.050   1.050   1.050   1.050   1.050   1.050
    74.00    1.050   1.050   1.050   1.050   1.050   1.050   1.050   1.050   1.050   1.050   1.050   1.050   1.050   1.050   1.050   1.050   1.050
    66.50    1.050   1.050   1.050   1.050   1.050   1.050   1.050   1.050   1.050   1.050   1.050   1.050   1.050   1.050   1.050   1.050   1.050
    59.00    1.050   1.050   1.050   1.050   1.050   1.050   1.050   1.050   1.050   1.050   1.050   1.050   1.050   1.050   1.050   1.050   1.050

   Mean standard deviation across all grid points:
      u component:    2.177 m/s
      v component:    1.680 m/s
      w component:    1.050 m/s


U-component (X) statistics from the interpolated hub point:

   Mean =  14.7027 m/s
   TI   =  13.5117 %


Processing complete.  12.917 CPU seconds used.
