
This summary file was generated by TurbSim (v2.00.01a-bjj, 14-Oct-2014) on 14-Jan-2016 at 10:40:03.


Runtime Options:

 338713836  Random seed #1
**********  Random seed #2
         F  Output binary HH turbulence parameters?
         F  Output formatted turbulence parameters?
         F  Output AeroDyn HH files?
         T  Output AeroDyn FF files?
         F  Output BLADED FF files?
         F  Output tower data?
         F  Output formatted FF files?
         F  Output coherent turbulence time step file?
         T  Clockwise rotation when looking downwind?
 0 -  NONE  IEC turbulence models scaled to exact specified standard deviation


Turbine/Model Specifications:

        17  Vertical grid-point matrix dimension
        17  Horizontal grid-point matrix dimension
     0.050  Time step [seconds]
   630.000  Analysis time [seconds]
   630.000  Usable output time [seconds]
   119.000  Hub height [m]
   120.000  Grid height [m]
   120.000  Grid width [m]
     0.000  Vertical flow angle [degrees]
     0.000  Horizontal flow angle [degrees]


Meteorological Boundary Conditions:

    USRINP  Uniform user-input spectral model
       N/A  IEC standard
       N/A  IEC turbulence characteristic
       N/A  IEC turbulence type
       N/A  IEC Extreme Turbulence Model (ETM) "c" parameter [m/s]
       PL   Wind profile type
   100.000  Reference height [m]
    14.200  Reference wind speed [m/s]
       N/A  Jet height [m]
     0.200  Power law exponent
     0.030  Surface roughness length [m]


Non-IEC Meteorological Boundary Conditions:

    45.000  Site latitude [degrees]
     0.050  Gradient Richardson number
     0.673  Friction or shear velocity [m/s]
       N/A  Mixing layer depth [m]
       N/A  Mean hub u'w' Reynolds stress
       N/A  Mean hub u'v' Reynolds stress
       N/A  Mean hub v'w' Reynolds stress


Spatial Coherence Models:

       IEC  u-component coherence model
      NONE  v-component coherence model
      NONE  w-component coherence model
(   12.000, 0.353E-03)  u-component coherence parameters
                   N/A  v-component coherence parameters
                   N/A  w-component coherence parameters
       N/A  Coherence exponent


You have requested that the following file(s) be generated:

   WP3.0A02V02\WP3.0A02V02_2.bts (AeroDyn/TurbSim full-field wind file)


Turbulence Simulation Scaling Parameter Summary:

   Turbulence model used                            =  Uniform user-input
   Gradient Richardson number                       =    0.050
   Monin-Obukhov (M-O) z/L parameter                =    0.067
   Monin-Obukhov (M-O) length scale                 = 1785.000 m
   Mean wind speed at hub height                    =   14.703 m/s

   Wind profile type                                =  Power law
   Power law exponent                               =    0.200
   Mean shear across rotor disk                     =    0.026 (m/s)/m
   Assumed rotor diameter                           =  120.000 m
   Surface roughness length                         =    0.030 m

   Nyquist frequency of turbulent wind field        =   10.000 Hz

   Number of time steps in the FFT                  =    12600
   Number of time steps output                      =    12600
   Number of points simulated                       =      289


Mean Flow Angles:

   Vertical   =   0.0 degrees
   Horizontal =   0.0 degrees

Mean Wind Speed Profile:

   Height    Wind Speed   Horizontal Angle  Vertical Angle  U-comp (X)   V-comp (Y)   W-comp (Z)
     (m)        (m/s)         (degrees)       (degrees)       (m/s)        (m/s)        (m/s)   
   ------    ----------   ----------------  --------------  ----------   ----------   ----------
    179.0       15.95            0.00            0.00         15.95         0.00         0.00
    171.5       15.82            0.00            0.00         15.82         0.00         0.00
    164.0       15.68            0.00            0.00         15.68         0.00         0.00
    156.5       15.53            0.00            0.00         15.53         0.00         0.00
    149.0       15.38            0.00            0.00         15.38         0.00         0.00
    141.5       15.22            0.00            0.00         15.22         0.00         0.00
    134.0       15.06            0.00            0.00         15.06         0.00         0.00
    126.5       14.88            0.00            0.00         14.88         0.00         0.00
    119.0       14.70            0.00            0.00         14.70         0.00         0.00
    111.5       14.51            0.00            0.00         14.51         0.00         0.00
    104.0       14.31            0.00            0.00         14.31         0.00         0.00
     96.5       14.10            0.00            0.00         14.10         0.00         0.00
     89.0       13.87            0.00            0.00         13.87         0.00         0.00
     81.5       13.63            0.00            0.00         13.63         0.00         0.00
     74.0       13.37            0.00            0.00         13.37         0.00         0.00
     66.5       13.09            0.00            0.00         13.09         0.00         0.00
     59.0       12.78            0.00            0.00         12.78         0.00         0.00


Harvested Random Seeds after Generation of the Random Numbers:

   1247049433 Harvested seed # 1
    996679849 Harvested seed # 2


Hub-Height Simulated Turbulence Statistical Summary:

   Type of Wind        Min (m/s)   Mean (m/s)    Max (m/s)  Sigma (m/s)       TI (%)
   ----------------    ---------   ----------    ---------  -----------       ------
   Longitudinal (u)         8.61        14.70        24.12        2.093       14.235
   Lateral (v)             -7.28        -0.00         7.95        1.680       11.426
   Vertical (w)            -4.98        -0.00         4.67        1.050        7.141
   U component              8.61        14.70        24.12        2.093       14.235
   V component             -7.28        -0.00         7.95        1.680       11.426
   W component             -4.98        -0.00         4.67        1.050        7.141
   Horizontal (U&V)         8.72        14.80        24.15        2.098       14.178
   Total                    8.75        14.83        24.23        2.098       14.146

                       Min Reynolds     Mean Reynolds    Max Reynolds    Correlation
   Product             Stress (m/s)^2   Stress (m/s)^2   Stress (m/s)^2  Coefficient
   ----------------    --------------   --------------   --------------  -----------
   u'w'                    -23.855             0.035            21.062         0.016
   u'v'                    -15.547             1.064            35.819         0.303
   v'w'                    -23.247             0.089            14.676         0.050


   Friction Velocity (Ustar)  =      0.187 m/s
   Maximum Instantaneous TKE  =     46.937 (m/s)^2
   Maximum Instantaneous CTKE =     17.967 (m/s)^2


Grid Point Variance Summary:

   Y-coord  -60.00  -52.50  -45.00  -37.50  -30.00  -22.50  -15.00   -7.50    0.00    7.50   15.00   22.50   30.00   37.50   45.00   52.50   60.00

   Height   Standard deviation at grid points for the u component:
   179.00    1.884   1.995   1.991   1.922   2.046   2.069   2.098   2.146   1.993   2.096   2.066   1.902   1.881   1.946   2.101   1.959   1.889
   171.50    1.988   2.093   2.067   2.045   2.152   2.126   2.064   2.215   2.084   1.982   2.238   2.047   1.950   2.009   1.955   2.025   1.912
   164.00    1.999   2.061   2.009   1.957   2.031   2.021   1.959   2.084   2.052   2.176   2.175   2.115   2.127   2.204   1.961   1.867   1.941
   156.50    2.105   2.163   2.029   1.916   1.917   2.153   2.066   1.986   2.049   2.167   2.126   2.228   2.323   2.323   2.183   2.005   2.014
   149.00    2.243   2.104   2.079   1.979   1.935   2.160   2.089   1.972   2.013   2.067   2.239   2.349   2.220   2.212   2.186   2.121   2.068
   141.50    2.139   2.121   1.955   1.941   2.111   2.173   1.966   2.061   1.986   1.953   2.175   2.231   2.299   2.221   2.165   2.071   1.987
   134.00    2.067   2.038   1.906   1.782   2.008   2.023   2.007   1.909   1.979   1.977   1.968   2.161   2.165   2.105   2.063   2.054   2.019
   126.50    2.067   2.012   1.891   1.862   2.026   1.991   2.045   2.013   2.031   1.996   1.998   2.129   2.089   2.049   1.963   2.033   1.951
   119.00    1.866   1.951   1.945   1.941   1.901   2.047   1.988   1.953   2.093   2.040   2.064   2.032   2.042   2.029   2.034   1.971   2.101
   111.50    1.870   1.891   1.900   1.903   1.865   2.022   2.087   1.909   1.927   1.997   1.871   1.883   1.860   1.976   1.945   1.965   1.987
   104.00    1.851   1.917   1.880   1.863   1.963   1.899   2.026   2.007   1.902   2.029   1.942   1.818   1.888   1.949   1.878   1.955   1.928
    96.50    1.880   1.806   1.822   1.891   1.881   1.846   1.873   1.973   2.074   2.060   2.010   2.051   1.984   1.987   1.949   1.872   1.842
    89.00    1.777   1.851   1.916   1.894   1.859   1.815   1.927   1.991   2.038   2.049   1.952   1.966   1.924   2.083   1.896   1.843   1.819
    81.50    1.929   1.747   1.774   1.876   1.898   2.008   1.969   2.071   2.034   1.952   1.930   1.913   2.036   2.131   2.024   1.835   1.827
    74.00    1.865   1.846   1.850   1.947   1.981   1.989   1.983   1.964   1.994   2.008   2.039   2.011   2.067   2.006   1.957   1.911   1.967
    66.50    1.838   1.921   1.961   1.891   1.952   2.007   2.002   1.915   1.778   1.952   1.971   1.977   1.989   1.920   1.828   1.910   1.855
    59.00    2.100   2.100   2.067   2.049   1.924   1.979   1.931   1.816   1.953   1.865   1.882   1.895   1.863   1.841   1.840   1.787   1.786

   Height   Standard deviation at grid points for the v component:
   179.00    1.680   1.680   1.680   1.680   1.680   1.680   1.680   1.680   1.680   1.680   1.680   1.680   1.680   1.680   1.680   1.680   1.680
   171.50    1.680   1.680   1.680   1.680   1.680   1.680   1.680   1.680   1.680   1.680   1.680   1.680   1.680   1.680   1.680   1.680   1.680
   164.00    1.680   1.680   1.680   1.680   1.680   1.680   1.680   1.680   1.680   1.680   1.680   1.680   1.680   1.680   1.680   1.680   1.680
   156.50    1.680   1.680   1.680   1.680   1.680   1.680   1.680   1.680   1.680   1.680   1.680   1.680   1.680   1.680   1.680   1.680   1.680
   149.00    1.680   1.680   1.680   1.680   1.680   1.680   1.680   1.680   1.680   1.680   1.680   1.680   1.680   1.680   1.680   1.680   1.680
   141.50    1.680   1.680   1.680   1.680   1.680   1.680   1.680   1.680   1.680   1.680   1.680   1.680   1.680   1.680   1.680   1.680   1.680
   134.00    1.680   1.680   1.680   1.680   1.680   1.680   1.680   1.680   1.680   1.680   1.680   1.680   1.680   1.680   1.680   1.680   1.680
   126.50    1.680   1.680   1.680   1.680   1.680   1.680   1.680   1.680   1.680   1.680   1.680   1.680   1.680   1.680   1.680   1.680   1.680
   119.00    1.680   1.680   1.680   1.680   1.680   1.680   1.680   1.680   1.680   1.680   1.680   1.680   1.680   1.680   1.680   1.680   1.680
   111.50    1.680   1.680   1.680   1.680   1.680   1.680   1.680   1.680   1.680   1.680   1.680   1.680   1.680   1.680   1.680   1.680   1.680
   104.00    1.680   1.680   1.680   1.680   1.680   1.680   1.680   1.680   1.680   1.680   1.680   1.680   1.680   1.680   1.680   1.680   1.680
    96.50    1.680   1.680   1.680   1.680   1.680   1.680   1.680   1.680   1.680   1.680   1.680   1.680   1.680   1.680   1.680   1.680   1.680
    89.00    1.680   1.680   1.680   1.680   1.680   1.680   1.680   1.680   1.680   1.680   1.680   1.680   1.680   1.680   1.680   1.680   1.680
    81.50    1.680   1.680   1.680   1.680   1.680   1.680   1.680   1.680   1.680   1.680   1.680   1.680   1.680   1.680   1.680   1.680   1.680
    74.00    1.680   1.680   1.680   1.680   1.680   1.680   1.680   1.680   1.680   1.680   1.680   1.680   1.680   1.680   1.680   1.680   1.680
    66.50    1.680   1.680   1.680   1.680   1.680   1.680   1.680   1.680   1.680   1.680   1.680   1.680   1.680   1.680   1.680   1.680   1.680
    59.00    1.680   1.680   1.680   1.680   1.680   1.680   1.680   1.680   1.680   1.680   1.680   1.680   1.680   1.680   1.680   1.680   1.680

   Height   Standard deviation at grid points for the w component:
   179.00    1.050   1.050   1.050   1.050   1.050   1.050   1.050   1.050   1.050   1.050   1.050   1.050   1.050   1.050   1.050   1.050   1.050
   171.50    1.050   1.050   1.050   1.050   1.050   1.050   1.050   1.050   1.050   1.050   1.050   1.050   1.050   1.050   1.050   1.050   1.050
   164.00    1.050   1.050   1.050   1.050   1.050   1.050   1.050   1.050   1.050   1.050   1.050   1.050   1.050   1.050   1.050   1.050   1.050
   156.50    1.050   1.050   1.050   1.050   1.050   1.050   1.050   1.050   1.050   1.050   1.050   1.050   1.050   1.050   1.050   1.050   1.050
   149.00    1.050   1.050   1.050   1.050   1.050   1.050   1.050   1.050   1.050   1.050   1.050   1.050   1.050   1.050   1.050   1.050   1.050
   141.50    1.050   1.050   1.050   1.050   1.050   1.050   1.050   1.050   1.050   1.050   1.050   1.050   1.050   1.050   1.050   1.050   1.050
   134.00    1.050   1.050   1.050   1.050   1.050   1.050   1.050   1.050   1.050   1.050   1.050   1.050   1.050   1.050   1.050   1.050   1.050
   126.50    1.050   1.050   1.050   1.050   1.050   1.050   1.050   1.050   1.050   1.050   1.050   1.050   1.050   1.050   1.050   1.050   1.050
   119.00    1.050   1.050   1.050   1.050   1.050   1.050   1.050   1.050   1.050   1.050   1.050   1.050   1.050   1.050   1.050   1.050   1.050
   111.50    1.050   1.050   1.050   1.050   1.050   1.050   1.050   1.050   1.050   1.050   1.050   1.050   1.050   1.050   1.050   1.050   1.050
   104.00    1.050   1.050   1.050   1.050   1.050   1.050   1.050   1.050   1.050   1.050   1.050   1.050   1.050   1.050   1.050   1.050   1.050
    96.50    1.050   1.050   1.050   1.050   1.050   1.050   1.050   1.050   1.050   1.050   1.050   1.050   1.050   1.050   1.050   1.050   1.050
    89.00    1.050   1.050   1.050   1.050   1.050   1.050   1.050   1.050   1.050   1.050   1.050   1.050   1.050   1.050   1.050   1.050   1.050
    81.50    1.050   1.050   1.050   1.050   1.050   1.050   1.050   1.050   1.050   1.050   1.050   1.050   1.050   1.050   1.050   1.050   1.050
    74.00    1.050   1.050   1.050   1.050   1.050   1.050   1.050   1.050   1.050   1.050   1.050   1.050   1.050   1.050   1.050   1.050   1.050
    66.50    1.050   1.050   1.050   1.050   1.050   1.050   1.050   1.050   1.050   1.050   1.050   1.050   1.050   1.050   1.050   1.050   1.050
    59.00    1.050   1.050   1.050   1.050   1.050   1.050   1.050   1.050   1.050   1.050   1.050   1.050   1.050   1.050   1.050   1.050   1.050

   Mean standard deviation across all grid points:
      u component:    1.993 m/s
      v component:    1.680 m/s
      w component:    1.050 m/s


U-component (X) statistics from the interpolated hub point:

   Mean =  14.7027 m/s
   TI   =  14.2345 %


Processing complete.  12.62 CPU seconds used.
