
This summary file was generated by TurbSim (v2.00.01a-bjj, 14-Oct-2014) on 17-Jan-2016 at 17:45:14.


Runtime Options:

 745114648  Random seed #1
-154794614  Random seed #2
         F  Output binary HH turbulence parameters?
         F  Output formatted turbulence parameters?
         F  Output AeroDyn HH files?
         T  Output AeroDyn FF files?
         F  Output BLADED FF files?
         F  Output tower data?
         F  Output formatted FF files?
         F  Output coherent turbulence time step file?
         T  Clockwise rotation when looking downwind?
 0 -  NONE  IEC turbulence models scaled to exact specified standard deviation


Turbine/Model Specifications:

        17  Vertical grid-point matrix dimension
        17  Horizontal grid-point matrix dimension
     0.050  Time step [seconds]
   630.000  Analysis time [seconds]
   630.000  Usable output time [seconds]
   119.000  Hub height [m]
   120.000  Grid height [m]
   120.000  Grid width [m]
     0.000  Vertical flow angle [degrees]
     0.000  Horizontal flow angle [degrees]


Meteorological Boundary Conditions:

    USRINP  Uniform user-input spectral model
       N/A  IEC standard
       N/A  IEC turbulence characteristic
       N/A  IEC turbulence type
       N/A  IEC Extreme Turbulence Model (ETM) "c" parameter [m/s]
       PL   Wind profile type
   100.000  Reference height [m]
     6.600  Reference wind speed [m/s]
       N/A  Jet height [m]
     0.200  Power law exponent
     0.030  Surface roughness length [m]


Non-IEC Meteorological Boundary Conditions:

    45.000  Site latitude [degrees]
     0.050  Gradient Richardson number
     0.313  Friction or shear velocity [m/s]
       N/A  Mixing layer depth [m]
       N/A  Mean hub u'w' Reynolds stress
       N/A  Mean hub u'v' Reynolds stress
       N/A  Mean hub v'w' Reynolds stress


Spatial Coherence Models:

       IEC  u-component coherence model
      NONE  v-component coherence model
      NONE  w-component coherence model
(   12.000, 0.353E-03)  u-component coherence parameters
                   N/A  v-component coherence parameters
                   N/A  w-component coherence parameters
       N/A  Coherence exponent


You have requested that the following file(s) be generated:

   WP3.0A02V02\WP3.0A02V02_0.bts (AeroDyn/TurbSim full-field wind file)


Turbulence Simulation Scaling Parameter Summary:

   Turbulence model used                            =  Uniform user-input
   Gradient Richardson number                       =    0.050
   Monin-Obukhov (M-O) z/L parameter                =    0.067
   Monin-Obukhov (M-O) length scale                 = 1785.000 m
   Mean wind speed at hub height                    =    6.834 m/s

   Wind profile type                                =  Power law
   Power law exponent                               =    0.200
   Mean shear across rotor disk                     =    0.012 (m/s)/m
   Assumed rotor diameter                           =  120.000 m
   Surface roughness length                         =    0.030 m

   Nyquist frequency of turbulent wind field        =   10.000 Hz

   Number of time steps in the FFT                  =    12600
   Number of time steps output                      =    12600
   Number of points simulated                       =      289


Mean Flow Angles:

   Vertical   =   0.0 degrees
   Horizontal =   0.0 degrees

Mean Wind Speed Profile:

   Height    Wind Speed   Horizontal Angle  Vertical Angle  U-comp (X)   V-comp (Y)   W-comp (Z)
     (m)        (m/s)         (degrees)       (degrees)       (m/s)        (m/s)        (m/s)   
   ------    ----------   ----------------  --------------  ----------   ----------   ----------
    179.0        7.42            0.00            0.00          7.42         0.00         0.00
    171.5        7.35            0.00            0.00          7.35         0.00         0.00
    164.0        7.29            0.00            0.00          7.29         0.00         0.00
    156.5        7.22            0.00            0.00          7.22         0.00         0.00
    149.0        7.15            0.00            0.00          7.15         0.00         0.00
    141.5        7.07            0.00            0.00          7.07         0.00         0.00
    134.0        7.00            0.00            0.00          7.00         0.00         0.00
    126.5        6.92            0.00            0.00          6.92         0.00         0.00
    119.0        6.83            0.00            0.00          6.83         0.00         0.00
    111.5        6.75            0.00            0.00          6.75         0.00         0.00
    104.0        6.65            0.00            0.00          6.65         0.00         0.00
     96.5        6.55            0.00            0.00          6.55         0.00         0.00
     89.0        6.45            0.00            0.00          6.45         0.00         0.00
     81.5        6.34            0.00            0.00          6.34         0.00         0.00
     74.0        6.21            0.00            0.00          6.21         0.00         0.00
     66.5        6.08            0.00            0.00          6.08         0.00         0.00
     59.0        5.94            0.00            0.00          5.94         0.00         0.00


Harvested Random Seeds after Generation of the Random Numbers:

       790330 Harvested seed # 1
    307301209 Harvested seed # 2


Hub-Height Simulated Turbulence Statistical Summary:

   Type of Wind        Min (m/s)   Mean (m/s)    Max (m/s)  Sigma (m/s)       TI (%)
   ----------------    ---------   ----------    ---------  -----------       ------
   Longitudinal (u)         0.03         6.83        12.01        2.019       29.539
   Lateral (v)             -5.48         0.00         5.06        1.680       24.586
   Vertical (w)            -3.59        -0.00         3.30        1.050       15.365
   U component              0.03         6.83        12.01        2.019       29.539
   V component             -5.48         0.00         5.06        1.680       24.586
   W component             -3.59        -0.00         3.30        1.050       15.365
   Horizontal (U&V)         1.23         7.07        12.15        1.902       26.910
   Total                    1.24         7.15        12.15        1.884       26.350

                       Min Reynolds     Mean Reynolds    Max Reynolds    Correlation
   Product             Stress (m/s)^2   Stress (m/s)^2   Stress (m/s)^2  Coefficient
   ----------------    --------------   --------------   --------------  -----------
   u'w'                     -9.197             0.143            13.211         0.067
   u'v'                    -19.671            -0.195            26.922        -0.057
   v'w'                    -11.243            -0.177             9.247        -0.100


   Friction Velocity (Ustar)  =      0.378 m/s
   Maximum Instantaneous TKE  =     31.068 (m/s)^2
   Maximum Instantaneous CTKE =     13.548 (m/s)^2


Grid Point Variance Summary:

   Y-coord  -60.00  -52.50  -45.00  -37.50  -30.00  -22.50  -15.00   -7.50    0.00    7.50   15.00   22.50   30.00   37.50   45.00   52.50   60.00

   Height   Standard deviation at grid points for the u component:
   179.00    2.131   2.104   2.079   1.999   2.053   1.862   1.911   2.055   2.228   2.100   2.285   2.403   2.364   2.458   2.304   2.393   2.428
   171.50    2.117   2.083   2.040   2.059   2.025   1.941   1.958   1.930   2.041   2.110   2.140   2.184   2.130   2.170   2.266   2.371   2.371
   164.00    1.956   1.940   2.044   2.135   1.877   1.849   1.893   1.991   1.958   2.025   2.103   2.091   2.088   2.023   2.181   2.271   2.466
   156.50    1.811   1.917   1.964   1.970   1.996   1.825   1.810   1.870   1.981   1.964   1.925   1.793   1.929   1.940   2.247   2.324   2.408
   149.00    1.801   1.748   1.921   1.921   1.796   1.889   1.803   1.845   1.939   1.686   1.718   1.825   1.658   1.963   2.295   2.314   2.433
   141.50    1.819   1.656   1.936   1.818   1.792   1.957   1.930   1.838   1.784   1.644   1.628   1.709   1.751   1.876   2.162   2.283   2.301
   134.00    1.906   1.863   1.862   1.743   1.751   1.988   1.757   1.749   1.831   1.633   1.710   1.752   1.715   1.927   2.045   1.976   2.178
   126.50    1.896   1.895   1.790   1.827   1.828   1.718   1.625   1.678   1.714   1.798   1.814   1.986   1.851   2.074   2.187   2.089   2.113
   119.00    2.079   2.025   1.983   1.902   1.847   1.797   1.787   1.822   2.019   1.799   1.882   2.017   1.996   2.126   1.944   1.912   2.057
   111.50    2.078   2.075   2.154   2.028   1.925   1.909   1.987   1.970   1.956   1.829   2.043   2.017   2.113   1.917   1.900   2.016   1.999
   104.00    2.005   2.100   2.195   2.220   2.065   1.963   2.054   1.924   2.067   1.972   2.035   2.094   2.288   1.951   1.895   1.918   1.937
    96.50    1.944   2.166   2.008   2.318   2.199   2.067   2.053   2.232   2.126   2.075   2.091   2.045   2.161   2.085   2.018   1.830   1.839
    89.00    2.116   2.150   2.057   2.199   2.264   2.288   2.207   2.159   1.995   1.975   2.103   2.022   2.172   2.140   2.062   1.922   1.938
    81.50    2.050   2.073   2.245   2.175   2.085   2.085   2.000   1.854   2.015   2.091   2.074   2.182   2.329   2.303   2.235   2.063   2.002
    74.00    2.262   2.193   1.980   2.036   1.836   2.040   2.050   2.037   2.221   2.237   2.175   2.205   2.141   2.357   2.346   2.210   2.051
    66.50    2.218   2.242   2.101   2.034   2.088   2.112   2.096   2.144   2.282   2.149   2.162   2.319   2.286   2.403   2.235   2.322   2.093
    59.00    2.101   2.064   2.249   2.325   2.182   2.149   2.162   2.153   2.268   2.273   2.015   2.170   2.136   2.206   2.257   2.313   2.246

   Height   Standard deviation at grid points for the v component:
   179.00    1.680   1.680   1.680   1.680   1.680   1.680   1.680   1.680   1.680   1.680   1.680   1.680   1.680   1.680   1.680   1.680   1.680
   171.50    1.680   1.680   1.680   1.680   1.680   1.680   1.680   1.680   1.680   1.680   1.680   1.680   1.680   1.680   1.680   1.680   1.680
   164.00    1.680   1.680   1.680   1.680   1.680   1.680   1.680   1.680   1.680   1.680   1.680   1.680   1.680   1.680   1.680   1.680   1.680
   156.50    1.680   1.680   1.680   1.680   1.680   1.680   1.680   1.680   1.680   1.680   1.680   1.680   1.680   1.680   1.680   1.680   1.680
   149.00    1.680   1.680   1.680   1.680   1.680   1.680   1.680   1.680   1.680   1.680   1.680   1.680   1.680   1.680   1.680   1.680   1.680
   141.50    1.680   1.680   1.680   1.680   1.680   1.680   1.680   1.680   1.680   1.680   1.680   1.680   1.680   1.680   1.680   1.680   1.680
   134.00    1.680   1.680   1.680   1.680   1.680   1.680   1.680   1.680   1.680   1.680   1.680   1.680   1.680   1.680   1.680   1.680   1.680
   126.50    1.680   1.680   1.680   1.680   1.680   1.680   1.680   1.680   1.680   1.680   1.680   1.680   1.680   1.680   1.680   1.680   1.680
   119.00    1.680   1.680   1.680   1.680   1.680   1.680   1.680   1.680   1.680   1.680   1.680   1.680   1.680   1.680   1.680   1.680   1.680
   111.50    1.680   1.680   1.680   1.680   1.680   1.680   1.680   1.680   1.680   1.680   1.680   1.680   1.680   1.680   1.680   1.680   1.680
   104.00    1.680   1.680   1.680   1.680   1.680   1.680   1.680   1.680   1.680   1.680   1.680   1.680   1.680   1.680   1.680   1.680   1.680
    96.50    1.680   1.680   1.680   1.680   1.680   1.680   1.680   1.680   1.680   1.680   1.680   1.680   1.680   1.680   1.680   1.680   1.680
    89.00    1.680   1.680   1.680   1.680   1.680   1.680   1.680   1.680   1.680   1.680   1.680   1.680   1.680   1.680   1.680   1.680   1.680
    81.50    1.680   1.680   1.680   1.680   1.680   1.680   1.680   1.680   1.680   1.680   1.680   1.680   1.680   1.680   1.680   1.680   1.680
    74.00    1.680   1.680   1.680   1.680   1.680   1.680   1.680   1.680   1.680   1.680   1.680   1.680   1.680   1.680   1.680   1.680   1.680
    66.50    1.680   1.680   1.680   1.680   1.680   1.680   1.680   1.680   1.680   1.680   1.680   1.680   1.680   1.680   1.680   1.680   1.680
    59.00    1.680   1.680   1.680   1.680   1.680   1.680   1.680   1.680   1.680   1.680   1.680   1.680   1.680   1.680   1.680   1.680   1.680

   Height   Standard deviation at grid points for the w component:
   179.00    1.050   1.050   1.050   1.050   1.050   1.050   1.050   1.050   1.050   1.050   1.050   1.050   1.050   1.050   1.050   1.050   1.050
   171.50    1.050   1.050   1.050   1.050   1.050   1.050   1.050   1.050   1.050   1.050   1.050   1.050   1.050   1.050   1.050   1.050   1.050
   164.00    1.050   1.050   1.050   1.050   1.050   1.050   1.050   1.050   1.050   1.050   1.050   1.050   1.050   1.050   1.050   1.050   1.050
   156.50    1.050   1.050   1.050   1.050   1.050   1.050   1.050   1.050   1.050   1.050   1.050   1.050   1.050   1.050   1.050   1.050   1.050
   149.00    1.050   1.050   1.050   1.050   1.050   1.050   1.050   1.050   1.050   1.050   1.050   1.050   1.050   1.050   1.050   1.050   1.050
   141.50    1.050   1.050   1.050   1.050   1.050   1.050   1.050   1.050   1.050   1.050   1.050   1.050   1.050   1.050   1.050   1.050   1.050
   134.00    1.050   1.050   1.050   1.050   1.050   1.050   1.050   1.050   1.050   1.050   1.050   1.050   1.050   1.050   1.050   1.050   1.050
   126.50    1.050   1.050   1.050   1.050   1.050   1.050   1.050   1.050   1.050   1.050   1.050   1.050   1.050   1.050   1.050   1.050   1.050
   119.00    1.050   1.050   1.050   1.050   1.050   1.050   1.050   1.050   1.050   1.050   1.050   1.050   1.050   1.050   1.050   1.050   1.050
   111.50    1.050   1.050   1.050   1.050   1.050   1.050   1.050   1.050   1.050   1.050   1.050   1.050   1.050   1.050   1.050   1.050   1.050
   104.00    1.050   1.050   1.050   1.050   1.050   1.050   1.050   1.050   1.050   1.050   1.050   1.050   1.050   1.050   1.050   1.050   1.050
    96.50    1.050   1.050   1.050   1.050   1.050   1.050   1.050   1.050   1.050   1.050   1.050   1.050   1.050   1.050   1.050   1.050   1.050
    89.00    1.050   1.050   1.050   1.050   1.050   1.050   1.050   1.050   1.050   1.050   1.050   1.050   1.050   1.050   1.050   1.050   1.050
    81.50    1.050   1.050   1.050   1.050   1.050   1.050   1.050   1.050   1.050   1.050   1.050   1.050   1.050   1.050   1.050   1.050   1.050
    74.00    1.050   1.050   1.050   1.050   1.050   1.050   1.050   1.050   1.050   1.050   1.050   1.050   1.050   1.050   1.050   1.050   1.050
    66.50    1.050   1.050   1.050   1.050   1.050   1.050   1.050   1.050   1.050   1.050   1.050   1.050   1.050   1.050   1.050   1.050   1.050
    59.00    1.050   1.050   1.050   1.050   1.050   1.050   1.050   1.050   1.050   1.050   1.050   1.050   1.050   1.050   1.050   1.050   1.050

   Mean standard deviation across all grid points:
      u component:    2.037 m/s
      v component:    1.680 m/s
      w component:    1.050 m/s


U-component (X) statistics from the interpolated hub point:

   Mean =   6.8337 m/s
   TI   =  29.5388 %


Processing complete.  13.073 CPU seconds used.
