
This summary file was generated by TurbSim (v2.00.01a-bjj, 14-Oct-2014) on 17-Jan-2016 at 17:49:21.


Runtime Options:

 745114648  Random seed #1
-154794614  Random seed #2
         F  Output binary HH turbulence parameters?
         F  Output formatted turbulence parameters?
         F  Output AeroDyn HH files?
         T  Output AeroDyn FF files?
         F  Output BLADED FF files?
         F  Output tower data?
         F  Output formatted FF files?
         F  Output coherent turbulence time step file?
         T  Clockwise rotation when looking downwind?
 0 -  NONE  IEC turbulence models scaled to exact specified standard deviation


Turbine/Model Specifications:

        17  Vertical grid-point matrix dimension
        17  Horizontal grid-point matrix dimension
     0.050  Time step [seconds]
   630.000  Analysis time [seconds]
   630.000  Usable output time [seconds]
   119.000  Hub height [m]
   120.000  Grid height [m]
   120.000  Grid width [m]
     0.000  Vertical flow angle [degrees]
     0.000  Horizontal flow angle [degrees]


Meteorological Boundary Conditions:

    USRINP  Uniform user-input spectral model
       N/A  IEC standard
       N/A  IEC turbulence characteristic
       N/A  IEC turbulence type
       N/A  IEC Extreme Turbulence Model (ETM) "c" parameter [m/s]
       PL   Wind profile type
   100.000  Reference height [m]
     6.600  Reference wind speed [m/s]
       N/A  Jet height [m]
     0.200  Power law exponent
     0.030  Surface roughness length [m]


Non-IEC Meteorological Boundary Conditions:

    45.000  Site latitude [degrees]
     0.050  Gradient Richardson number
     0.313  Friction or shear velocity [m/s]
       N/A  Mixing layer depth [m]
       N/A  Mean hub u'w' Reynolds stress
       N/A  Mean hub u'v' Reynolds stress
       N/A  Mean hub v'w' Reynolds stress


Spatial Coherence Models:

       IEC  u-component coherence model
      NONE  v-component coherence model
      NONE  w-component coherence model
(   12.000, 0.353E-03)  u-component coherence parameters
                   N/A  v-component coherence parameters
                   N/A  w-component coherence parameters
       N/A  Coherence exponent


You have requested that the following file(s) be generated:

   WP3.0A02V02\WP3.0A02V02_2.bts (AeroDyn/TurbSim full-field wind file)


Turbulence Simulation Scaling Parameter Summary:

   Turbulence model used                            =  Uniform user-input
   Gradient Richardson number                       =    0.050
   Monin-Obukhov (M-O) z/L parameter                =    0.067
   Monin-Obukhov (M-O) length scale                 = 1785.000 m
   Mean wind speed at hub height                    =    6.834 m/s

   Wind profile type                                =  Power law
   Power law exponent                               =    0.200
   Mean shear across rotor disk                     =    0.012 (m/s)/m
   Assumed rotor diameter                           =  120.000 m
   Surface roughness length                         =    0.030 m

   Nyquist frequency of turbulent wind field        =   10.000 Hz

   Number of time steps in the FFT                  =    12600
   Number of time steps output                      =    12600
   Number of points simulated                       =      289


Mean Flow Angles:

   Vertical   =   0.0 degrees
   Horizontal =   0.0 degrees

Mean Wind Speed Profile:

   Height    Wind Speed   Horizontal Angle  Vertical Angle  U-comp (X)   V-comp (Y)   W-comp (Z)
     (m)        (m/s)         (degrees)       (degrees)       (m/s)        (m/s)        (m/s)   
   ------    ----------   ----------------  --------------  ----------   ----------   ----------
    179.0        7.42            0.00            0.00          7.42         0.00         0.00
    171.5        7.35            0.00            0.00          7.35         0.00         0.00
    164.0        7.29            0.00            0.00          7.29         0.00         0.00
    156.5        7.22            0.00            0.00          7.22         0.00         0.00
    149.0        7.15            0.00            0.00          7.15         0.00         0.00
    141.5        7.07            0.00            0.00          7.07         0.00         0.00
    134.0        7.00            0.00            0.00          7.00         0.00         0.00
    126.5        6.92            0.00            0.00          6.92         0.00         0.00
    119.0        6.83            0.00            0.00          6.83         0.00         0.00
    111.5        6.75            0.00            0.00          6.75         0.00         0.00
    104.0        6.65            0.00            0.00          6.65         0.00         0.00
     96.5        6.55            0.00            0.00          6.55         0.00         0.00
     89.0        6.45            0.00            0.00          6.45         0.00         0.00
     81.5        6.34            0.00            0.00          6.34         0.00         0.00
     74.0        6.21            0.00            0.00          6.21         0.00         0.00
     66.5        6.08            0.00            0.00          6.08         0.00         0.00
     59.0        5.94            0.00            0.00          5.94         0.00         0.00


Harvested Random Seeds after Generation of the Random Numbers:

       790330 Harvested seed # 1
    307301209 Harvested seed # 2


Hub-Height Simulated Turbulence Statistical Summary:

   Type of Wind        Min (m/s)   Mean (m/s)    Max (m/s)  Sigma (m/s)       TI (%)
   ----------------    ---------   ----------    ---------  -----------       ------
   Longitudinal (u)         0.88         6.83        14.94        2.027       29.661
   Lateral (v)             -5.94         0.00         6.70        1.680       24.586
   Vertical (w)            -4.42        -0.00         3.89        1.050       15.365
   U component              0.88         6.83        14.94        2.027       29.661
   V component             -5.94         0.00         6.70        1.680       24.586
   W component             -4.42        -0.00         3.89        1.050       15.365
   Horizontal (U&V)         1.25         7.06        15.16        1.953       27.674
   Total                    1.34         7.14        15.35        1.929       27.002

                       Min Reynolds     Mean Reynolds    Max Reynolds    Correlation
   Product             Stress (m/s)^2   Stress (m/s)^2   Stress (m/s)^2  Coefficient
   ----------------    --------------   --------------   --------------  -----------
   u'w'                    -15.205             0.074            21.689         0.035
   u'v'                    -27.306            -0.049            30.511        -0.014
   v'w'                    -18.065             0.121            16.955         0.069


   Friction Velocity (Ustar)  =      0.272 m/s
   Maximum Instantaneous TKE  =     39.029 (m/s)^2
   Maximum Instantaneous CTKE =     16.529 (m/s)^2


Grid Point Variance Summary:

   Y-coord  -60.00  -52.50  -45.00  -37.50  -30.00  -22.50  -15.00   -7.50    0.00    7.50   15.00   22.50   30.00   37.50   45.00   52.50   60.00

   Height   Standard deviation at grid points for the u component:
   179.00    1.838   2.073   2.037   2.089   2.180   2.038   2.062   2.127   2.165   2.113   2.081   2.269   2.217   2.365   2.341   2.458   2.335
   171.50    2.033   2.065   1.980   1.964   2.048   1.994   1.988   2.080   1.917   2.016   2.045   2.096   2.199   2.139   2.343   2.544   2.521
   164.00    1.926   2.070   2.057   2.039   1.891   1.911   1.944   2.026   2.078   2.145   2.115   2.067   2.105   2.062   2.400   2.533   2.573
   156.50    1.897   2.131   2.042   1.980   2.053   1.846   1.918   1.837   2.092   2.116   1.960   1.919   1.991   1.997   2.273   2.342   2.441
   149.00    1.873   1.740   1.894   2.014   1.887   1.889   1.848   1.882   1.940   1.838   1.876   1.951   1.901   2.089   2.267   2.479   2.519
   141.50    1.898   1.853   2.047   1.913   1.921   1.934   1.933   1.849   1.783   1.851   1.950   1.852   2.025   2.107   2.271   2.463   2.280
   134.00    1.963   1.945   1.855   1.927   1.927   2.044   1.805   1.832   1.828   1.841   1.918   2.039   1.849   1.984   2.217   2.073   2.127
   126.50    1.924   1.994   1.824   2.140   2.104   1.940   1.826   1.772   1.759   1.923   1.949   2.124   1.784   2.075   2.271   2.262   2.324
   119.00    1.956   1.850   1.944   2.104   2.146   2.107   2.001   1.931   2.027   1.781   2.065   2.130   1.989   2.163   1.998   2.028   2.151
   111.50    1.987   1.816   1.988   2.128   1.977   2.068   2.027   1.879   1.783   1.840   2.057   1.965   2.119   1.898   1.942   2.064   1.956
   104.00    2.064   1.933   1.988   2.096   2.029   2.114   2.084   1.921   1.899   1.827   1.864   1.985   2.189   1.986   1.871   1.918   1.894
    96.50    2.097   2.085   1.994   2.301   2.221   2.307   2.145   2.084   2.079   1.936   1.838   1.982   1.921   2.055   1.887   1.796   1.710
    89.00    2.291   2.254   2.004   2.145   2.177   2.239   2.136   2.151   1.928   1.898   1.994   1.877   1.919   1.994   1.875   2.020   1.743
    81.50    2.299   2.223   2.040   1.897   1.953   2.167   1.994   1.842   2.013   1.937   1.906   2.050   2.053   2.175   2.032   2.000   1.799
    74.00    2.140   2.054   1.794   1.691   1.657   2.051   2.061   2.131   2.261   2.085   2.068   2.120   1.940   2.155   2.166   2.058   1.818
    66.50    2.146   2.103   1.709   1.722   1.875   1.872   2.006   2.080   2.326   2.021   2.122   2.114   2.104   2.191   2.056   2.125   2.002
    59.00    2.101   2.013   2.025   1.909   1.944   1.883   1.926   1.995   2.225   2.272   2.013   2.148   2.039   2.175   2.200   2.414   2.210

   Height   Standard deviation at grid points for the v component:
   179.00    1.680   1.680   1.680   1.680   1.680   1.680   1.680   1.680   1.680   1.680   1.680   1.680   1.680   1.680   1.680   1.680   1.680
   171.50    1.680   1.680   1.680   1.680   1.680   1.680   1.680   1.680   1.680   1.680   1.680   1.680   1.680   1.680   1.680   1.680   1.680
   164.00    1.680   1.680   1.680   1.680   1.680   1.680   1.680   1.680   1.680   1.680   1.680   1.680   1.680   1.680   1.680   1.680   1.680
   156.50    1.680   1.680   1.680   1.680   1.680   1.680   1.680   1.680   1.680   1.680   1.680   1.680   1.680   1.680   1.680   1.680   1.680
   149.00    1.680   1.680   1.680   1.680   1.680   1.680   1.680   1.680   1.680   1.680   1.680   1.680   1.680   1.680   1.680   1.680   1.680
   141.50    1.680   1.680   1.680   1.680   1.680   1.680   1.680   1.680   1.680   1.680   1.680   1.680   1.680   1.680   1.680   1.680   1.680
   134.00    1.680   1.680   1.680   1.680   1.680   1.680   1.680   1.680   1.680   1.680   1.680   1.680   1.680   1.680   1.680   1.680   1.680
   126.50    1.680   1.680   1.680   1.680   1.680   1.680   1.680   1.680   1.680   1.680   1.680   1.680   1.680   1.680   1.680   1.680   1.680
   119.00    1.680   1.680   1.680   1.680   1.680   1.680   1.680   1.680   1.680   1.680   1.680   1.680   1.680   1.680   1.680   1.680   1.680
   111.50    1.680   1.680   1.680   1.680   1.680   1.680   1.680   1.680   1.680   1.680   1.680   1.680   1.680   1.680   1.680   1.680   1.680
   104.00    1.680   1.680   1.680   1.680   1.680   1.680   1.680   1.680   1.680   1.680   1.680   1.680   1.680   1.680   1.680   1.680   1.680
    96.50    1.680   1.680   1.680   1.680   1.680   1.680   1.680   1.680   1.680   1.680   1.680   1.680   1.680   1.680   1.680   1.680   1.680
    89.00    1.680   1.680   1.680   1.680   1.680   1.680   1.680   1.680   1.680   1.680   1.680   1.680   1.680   1.680   1.680   1.680   1.680
    81.50    1.680   1.680   1.680   1.680   1.680   1.680   1.680   1.680   1.680   1.680   1.680   1.680   1.680   1.680   1.680   1.680   1.680
    74.00    1.680   1.680   1.680   1.680   1.680   1.680   1.680   1.680   1.680   1.680   1.680   1.680   1.680   1.680   1.680   1.680   1.680
    66.50    1.680   1.680   1.680   1.680   1.680   1.680   1.680   1.680   1.680   1.680   1.680   1.680   1.680   1.680   1.680   1.680   1.680
    59.00    1.680   1.680   1.680   1.680   1.680   1.680   1.680   1.680   1.680   1.680   1.680   1.680   1.680   1.680   1.680   1.680   1.680

   Height   Standard deviation at grid points for the w component:
   179.00    1.050   1.050   1.050   1.050   1.050   1.050   1.050   1.050   1.050   1.050   1.050   1.050   1.050   1.050   1.050   1.050   1.050
   171.50    1.050   1.050   1.050   1.050   1.050   1.050   1.050   1.050   1.050   1.050   1.050   1.050   1.050   1.050   1.050   1.050   1.050
   164.00    1.050   1.050   1.050   1.050   1.050   1.050   1.050   1.050   1.050   1.050   1.050   1.050   1.050   1.050   1.050   1.050   1.050
   156.50    1.050   1.050   1.050   1.050   1.050   1.050   1.050   1.050   1.050   1.050   1.050   1.050   1.050   1.050   1.050   1.050   1.050
   149.00    1.050   1.050   1.050   1.050   1.050   1.050   1.050   1.050   1.050   1.050   1.050   1.050   1.050   1.050   1.050   1.050   1.050
   141.50    1.050   1.050   1.050   1.050   1.050   1.050   1.050   1.050   1.050   1.050   1.050   1.050   1.050   1.050   1.050   1.050   1.050
   134.00    1.050   1.050   1.050   1.050   1.050   1.050   1.050   1.050   1.050   1.050   1.050   1.050   1.050   1.050   1.050   1.050   1.050
   126.50    1.050   1.050   1.050   1.050   1.050   1.050   1.050   1.050   1.050   1.050   1.050   1.050   1.050   1.050   1.050   1.050   1.050
   119.00    1.050   1.050   1.050   1.050   1.050   1.050   1.050   1.050   1.050   1.050   1.050   1.050   1.050   1.050   1.050   1.050   1.050
   111.50    1.050   1.050   1.050   1.050   1.050   1.050   1.050   1.050   1.050   1.050   1.050   1.050   1.050   1.050   1.050   1.050   1.050
   104.00    1.050   1.050   1.050   1.050   1.050   1.050   1.050   1.050   1.050   1.050   1.050   1.050   1.050   1.050   1.050   1.050   1.050
    96.50    1.050   1.050   1.050   1.050   1.050   1.050   1.050   1.050   1.050   1.050   1.050   1.050   1.050   1.050   1.050   1.050   1.050
    89.00    1.050   1.050   1.050   1.050   1.050   1.050   1.050   1.050   1.050   1.050   1.050   1.050   1.050   1.050   1.050   1.050   1.050
    81.50    1.050   1.050   1.050   1.050   1.050   1.050   1.050   1.050   1.050   1.050   1.050   1.050   1.050   1.050   1.050   1.050   1.050
    74.00    1.050   1.050   1.050   1.050   1.050   1.050   1.050   1.050   1.050   1.050   1.050   1.050   1.050   1.050   1.050   1.050   1.050
    66.50    1.050   1.050   1.050   1.050   1.050   1.050   1.050   1.050   1.050   1.050   1.050   1.050   1.050   1.050   1.050   1.050   1.050
    59.00    1.050   1.050   1.050   1.050   1.050   1.050   1.050   1.050   1.050   1.050   1.050   1.050   1.050   1.050   1.050   1.050   1.050

   Mean standard deviation across all grid points:
      u component:    2.034 m/s
      v component:    1.680 m/s
      w component:    1.050 m/s


U-component (X) statistics from the interpolated hub point:

   Mean =   6.8337 m/s
   TI   =  29.6606 %


Processing complete.  13.759 CPU seconds used.
