
This summary file was generated by TurbSim (v2.00.01a-bjj, 14-Oct-2014) on 17-Jan-2016 at 17:55:31.


Runtime Options:

 745114648  Random seed #1
-154794614  Random seed #2
         F  Output binary HH turbulence parameters?
         F  Output formatted turbulence parameters?
         F  Output AeroDyn HH files?
         T  Output AeroDyn FF files?
         F  Output BLADED FF files?
         F  Output tower data?
         F  Output formatted FF files?
         F  Output coherent turbulence time step file?
         T  Clockwise rotation when looking downwind?
 0 -  NONE  IEC turbulence models scaled to exact specified standard deviation


Turbine/Model Specifications:

        17  Vertical grid-point matrix dimension
        17  Horizontal grid-point matrix dimension
     0.050  Time step [seconds]
   630.000  Analysis time [seconds]
   630.000  Usable output time [seconds]
   119.000  Hub height [m]
   120.000  Grid height [m]
   120.000  Grid width [m]
     0.000  Vertical flow angle [degrees]
     0.000  Horizontal flow angle [degrees]


Meteorological Boundary Conditions:

    USRINP  Uniform user-input spectral model
       N/A  IEC standard
       N/A  IEC turbulence characteristic
       N/A  IEC turbulence type
       N/A  IEC Extreme Turbulence Model (ETM) "c" parameter [m/s]
       PL   Wind profile type
   100.000  Reference height [m]
    16.100  Reference wind speed [m/s]
       N/A  Jet height [m]
     0.200  Power law exponent
     0.030  Surface roughness length [m]


Non-IEC Meteorological Boundary Conditions:

    45.000  Site latitude [degrees]
     0.050  Gradient Richardson number
     0.763  Friction or shear velocity [m/s]
       N/A  Mixing layer depth [m]
       N/A  Mean hub u'w' Reynolds stress
       N/A  Mean hub u'v' Reynolds stress
       N/A  Mean hub v'w' Reynolds stress


Spatial Coherence Models:

       IEC  u-component coherence model
      NONE  v-component coherence model
      NONE  w-component coherence model
(   12.000, 0.353E-03)  u-component coherence parameters
                   N/A  v-component coherence parameters
                   N/A  w-component coherence parameters
       N/A  Coherence exponent


You have requested that the following file(s) be generated:

   WP3.0A02V02\WP3.0A02V02_5.bts (AeroDyn/TurbSim full-field wind file)


Turbulence Simulation Scaling Parameter Summary:

   Turbulence model used                            =  Uniform user-input
   Gradient Richardson number                       =    0.050
   Monin-Obukhov (M-O) z/L parameter                =    0.067
   Monin-Obukhov (M-O) length scale                 = 1785.000 m
   Mean wind speed at hub height                    =   16.670 m/s

   Wind profile type                                =  Power law
   Power law exponent                               =    0.200
   Mean shear across rotor disk                     =    0.030 (m/s)/m
   Assumed rotor diameter                           =  120.000 m
   Surface roughness length                         =    0.030 m

   Nyquist frequency of turbulent wind field        =   10.000 Hz

   Number of time steps in the FFT                  =    12600
   Number of time steps output                      =    12600
   Number of points simulated                       =      289


Mean Flow Angles:

   Vertical   =   0.0 degrees
   Horizontal =   0.0 degrees

Mean Wind Speed Profile:

   Height    Wind Speed   Horizontal Angle  Vertical Angle  U-comp (X)   V-comp (Y)   W-comp (Z)
     (m)        (m/s)         (degrees)       (degrees)       (m/s)        (m/s)        (m/s)   
   ------    ----------   ----------------  --------------  ----------   ----------   ----------
    179.0       18.09            0.00            0.00         18.09         0.00         0.00
    171.5       17.93            0.00            0.00         17.93         0.00         0.00
    164.0       17.77            0.00            0.00         17.77         0.00         0.00
    156.5       17.61            0.00            0.00         17.61         0.00         0.00
    149.0       17.44            0.00            0.00         17.44         0.00         0.00
    141.5       17.26            0.00            0.00         17.26         0.00         0.00
    134.0       17.07            0.00            0.00         17.07         0.00         0.00
    126.5       16.88            0.00            0.00         16.88         0.00         0.00
    119.0       16.67            0.00            0.00         16.67         0.00         0.00
    111.5       16.45            0.00            0.00         16.45         0.00         0.00
    104.0       16.23            0.00            0.00         16.23         0.00         0.00
     96.5       15.99            0.00            0.00         15.99         0.00         0.00
     89.0       15.73            0.00            0.00         15.73         0.00         0.00
     81.5       15.45            0.00            0.00         15.45         0.00         0.00
     74.0       15.16            0.00            0.00         15.16         0.00         0.00
     66.5       14.84            0.00            0.00         14.84         0.00         0.00
     59.0       14.49            0.00            0.00         14.49         0.00         0.00


Harvested Random Seeds after Generation of the Random Numbers:

       790330 Harvested seed # 1
    307301209 Harvested seed # 2


Hub-Height Simulated Turbulence Statistical Summary:

   Type of Wind        Min (m/s)   Mean (m/s)    Max (m/s)  Sigma (m/s)       TI (%)
   ----------------    ---------   ----------    ---------  -----------       ------
   Longitudinal (u)         9.93        16.67        24.40        2.080       12.479
   Lateral (v)             -6.03         0.00         7.07        1.680       10.078
   Vertical (w)            -4.36         0.00         4.14        1.050        6.298
   U component              9.93        16.67        24.40        2.080       12.479
   V component             -6.03         0.00         7.07        1.680       10.078
   W component             -4.36         0.00         4.14        1.050        6.298
   Horizontal (U&V)        10.32        16.76        24.57        2.064       12.317
   Total                   10.33        16.79        24.68        2.060       12.267

                       Min Reynolds     Mean Reynolds    Max Reynolds    Correlation
   Product             Stress (m/s)^2   Stress (m/s)^2   Stress (m/s)^2  Coefficient
   ----------------    --------------   --------------   --------------  -----------
   u'w'                    -18.596             0.057            20.236         0.026
   u'v'                    -32.450             0.039            33.291         0.011
   v'w'                    -20.557             0.108            18.416         0.061


   Friction Velocity (Ustar)  =      0.240 m/s
   Maximum Instantaneous TKE  =     36.895 (m/s)^2
   Maximum Instantaneous CTKE =     17.484 (m/s)^2


Grid Point Variance Summary:

   Y-coord  -60.00  -52.50  -45.00  -37.50  -30.00  -22.50  -15.00   -7.50    0.00    7.50   15.00   22.50   30.00   37.50   45.00   52.50   60.00

   Height   Standard deviation at grid points for the u component:
   179.00    1.998   2.133   2.076   2.088   2.151   2.099   2.107   2.178   2.193   2.134   2.123   2.205   2.188   2.314   2.291   2.339   2.263
   171.50    2.080   2.106   2.038   2.001   2.109   2.083   2.117   2.142   2.049   2.088   2.071   2.083   2.178   2.171   2.245   2.388   2.381
   164.00    2.005   2.170   2.091   2.091   1.955   2.054   2.012   2.080   2.124   2.177   2.176   2.074   2.113   2.119   2.317   2.342   2.385
   156.50    1.979   2.160   2.064   2.016   2.082   1.985   2.021   1.992   2.107   2.107   2.019   2.035   2.003   2.037   2.211   2.241   2.255
   149.00    1.983   1.851   1.973   2.081   2.023   2.006   1.989   2.002   1.958   1.960   1.972   1.979   1.973   2.058   2.161   2.265   2.305
   141.50    1.980   1.911   2.086   2.038   2.055   2.078   2.052   1.951   1.881   1.924   1.979   1.923   2.037   2.047   2.163   2.269   2.137
   134.00    2.021   2.000   2.030   2.104   2.077   2.162   1.979   1.938   1.929   1.912   1.928   2.015   1.931   1.995   2.126   2.060   2.103
   126.50    2.034   2.080   2.029   2.225   2.228   2.112   2.014   1.951   1.878   1.917   1.923   2.016   1.853   2.070   2.178   2.124   2.150
   119.00    2.066   2.031   2.102   2.236   2.259   2.215   2.101   2.028   2.080   1.861   1.977   2.058   2.005   2.089   1.985   1.974   2.047
   111.50    2.109   2.043   2.129   2.200   2.098   2.147   2.097   2.015   1.885   1.925   2.016   1.925   2.067   1.932   1.879   1.999   1.951
   104.00    2.196   2.137   2.130   2.146   2.090   2.172   2.121   2.039   1.986   1.888   1.860   1.979   2.074   1.951   1.828   1.877   1.885
    96.50    2.238   2.207   2.152   2.266   2.188   2.282   2.145   2.124   2.108   1.975   1.894   1.999   1.896   1.975   1.905   1.853   1.796
    89.00    2.323   2.306   2.115   2.152   2.159   2.227   2.152   2.125   1.983   1.971   1.987   1.939   1.971   1.992   1.876   2.023   1.857
    81.50    2.293   2.231   2.091   1.937   1.978   2.122   2.062   1.939   1.998   1.968   1.966   2.044   2.045   2.090   1.981   1.989   1.966
    74.00    2.135   2.079   1.918   1.797   1.749   2.027   2.025   2.094   2.158   2.049   2.071   2.090   2.015   2.089   2.092   2.008   1.934
    66.50    2.160   2.101   1.801   1.838   1.918   1.912   1.956   1.989   2.171   2.007   2.107   2.124   2.152   2.166   2.049   2.073   1.987
    59.00    2.100   2.040   2.000   1.898   1.955   1.913   1.937   1.949   2.146   2.177   2.044   2.146   2.123   2.221   2.178   2.277   2.183

   Height   Standard deviation at grid points for the v component:
   179.00    1.680   1.680   1.680   1.680   1.680   1.680   1.680   1.680   1.680   1.680   1.680   1.680   1.680   1.680   1.680   1.680   1.680
   171.50    1.680   1.680   1.680   1.680   1.680   1.680   1.680   1.680   1.680   1.680   1.680   1.680   1.680   1.680   1.680   1.680   1.680
   164.00    1.680   1.680   1.680   1.680   1.680   1.680   1.680   1.680   1.680   1.680   1.680   1.680   1.680   1.680   1.680   1.680   1.680
   156.50    1.680   1.680   1.680   1.680   1.680   1.680   1.680   1.680   1.680   1.680   1.680   1.680   1.680   1.680   1.680   1.680   1.680
   149.00    1.680   1.680   1.680   1.680   1.680   1.680   1.680   1.680   1.680   1.680   1.680   1.680   1.680   1.680   1.680   1.680   1.680
   141.50    1.680   1.680   1.680   1.680   1.680   1.680   1.680   1.680   1.680   1.680   1.680   1.680   1.680   1.680   1.680   1.680   1.680
   134.00    1.680   1.680   1.680   1.680   1.680   1.680   1.680   1.680   1.680   1.680   1.680   1.680   1.680   1.680   1.680   1.680   1.680
   126.50    1.680   1.680   1.680   1.680   1.680   1.680   1.680   1.680   1.680   1.680   1.680   1.680   1.680   1.680   1.680   1.680   1.680
   119.00    1.680   1.680   1.680   1.680   1.680   1.680   1.680   1.680   1.680   1.680   1.680   1.680   1.680   1.680   1.680   1.680   1.680
   111.50    1.680   1.680   1.680   1.680   1.680   1.680   1.680   1.680   1.680   1.680   1.680   1.680   1.680   1.680   1.680   1.680   1.680
   104.00    1.680   1.680   1.680   1.680   1.680   1.680   1.680   1.680   1.680   1.680   1.680   1.680   1.680   1.680   1.680   1.680   1.680
    96.50    1.680   1.680   1.680   1.680   1.680   1.680   1.680   1.680   1.680   1.680   1.680   1.680   1.680   1.680   1.680   1.680   1.680
    89.00    1.680   1.680   1.680   1.680   1.680   1.680   1.680   1.680   1.680   1.680   1.680   1.680   1.680   1.680   1.680   1.680   1.680
    81.50    1.680   1.680   1.680   1.680   1.680   1.680   1.680   1.680   1.680   1.680   1.680   1.680   1.680   1.680   1.680   1.680   1.680
    74.00    1.680   1.680   1.680   1.680   1.680   1.680   1.680   1.680   1.680   1.680   1.680   1.680   1.680   1.680   1.680   1.680   1.680
    66.50    1.680   1.680   1.680   1.680   1.680   1.680   1.680   1.680   1.680   1.680   1.680   1.680   1.680   1.680   1.680   1.680   1.680
    59.00    1.680   1.680   1.680   1.680   1.680   1.680   1.680   1.680   1.680   1.680   1.680   1.680   1.680   1.680   1.680   1.680   1.680

   Height   Standard deviation at grid points for the w component:
   179.00    1.050   1.050   1.050   1.050   1.050   1.050   1.050   1.050   1.050   1.050   1.050   1.050   1.050   1.050   1.050   1.050   1.050
   171.50    1.050   1.050   1.050   1.050   1.050   1.050   1.050   1.050   1.050   1.050   1.050   1.050   1.050   1.050   1.050   1.050   1.050
   164.00    1.050   1.050   1.050   1.050   1.050   1.050   1.050   1.050   1.050   1.050   1.050   1.050   1.050   1.050   1.050   1.050   1.050
   156.50    1.050   1.050   1.050   1.050   1.050   1.050   1.050   1.050   1.050   1.050   1.050   1.050   1.050   1.050   1.050   1.050   1.050
   149.00    1.050   1.050   1.050   1.050   1.050   1.050   1.050   1.050   1.050   1.050   1.050   1.050   1.050   1.050   1.050   1.050   1.050
   141.50    1.050   1.050   1.050   1.050   1.050   1.050   1.050   1.050   1.050   1.050   1.050   1.050   1.050   1.050   1.050   1.050   1.050
   134.00    1.050   1.050   1.050   1.050   1.050   1.050   1.050   1.050   1.050   1.050   1.050   1.050   1.050   1.050   1.050   1.050   1.050
   126.50    1.050   1.050   1.050   1.050   1.050   1.050   1.050   1.050   1.050   1.050   1.050   1.050   1.050   1.050   1.050   1.050   1.050
   119.00    1.050   1.050   1.050   1.050   1.050   1.050   1.050   1.050   1.050   1.050   1.050   1.050   1.050   1.050   1.050   1.050   1.050
   111.50    1.050   1.050   1.050   1.050   1.050   1.050   1.050   1.050   1.050   1.050   1.050   1.050   1.050   1.050   1.050   1.050   1.050
   104.00    1.050   1.050   1.050   1.050   1.050   1.050   1.050   1.050   1.050   1.050   1.050   1.050   1.050   1.050   1.050   1.050   1.050
    96.50    1.050   1.050   1.050   1.050   1.050   1.050   1.050   1.050   1.050   1.050   1.050   1.050   1.050   1.050   1.050   1.050   1.050
    89.00    1.050   1.050   1.050   1.050   1.050   1.050   1.050   1.050   1.050   1.050   1.050   1.050   1.050   1.050   1.050   1.050   1.050
    81.50    1.050   1.050   1.050   1.050   1.050   1.050   1.050   1.050   1.050   1.050   1.050   1.050   1.050   1.050   1.050   1.050   1.050
    74.00    1.050   1.050   1.050   1.050   1.050   1.050   1.050   1.050   1.050   1.050   1.050   1.050   1.050   1.050   1.050   1.050   1.050
    66.50    1.050   1.050   1.050   1.050   1.050   1.050   1.050   1.050   1.050   1.050   1.050   1.050   1.050   1.050   1.050   1.050   1.050
    59.00    1.050   1.050   1.050   1.050   1.050   1.050   1.050   1.050   1.050   1.050   1.050   1.050   1.050   1.050   1.050   1.050   1.050

   Mean standard deviation across all grid points:
      u component:    2.062 m/s
      v component:    1.680 m/s
      w component:    1.050 m/s


U-component (X) statistics from the interpolated hub point:

   Mean =  16.6700 m/s
   TI   =  12.4788 %


Processing complete.  13.463 CPU seconds used.
