
This summary file was generated by TurbSim (v2.00.01a-bjj, 14-Oct-2014) on 16-Jul-2015 at 12:53:40.


Runtime Options:

    123456  Random seed #1
    789012  Random seed #2
         F  Output binary HH turbulence parameters?
         F  Output formatted turbulence parameters?
         F  Output AeroDyn HH files?
         T  Output AeroDyn FF files?
         T  Output BLADED FF files?
         F  Output tower data?
         F  Output formatted FF files?
         F  Output coherent turbulence time step file?
         T  Clockwise rotation when looking downwind?
 0 -  NONE  IEC turbulence models scaled to exact specified standard deviation


Turbine/Model Specifications:

        15  Vertical grid-point matrix dimension
        15  Horizontal grid-point matrix dimension
     0.050  Time step [seconds]
   600.000  Analysis time [seconds]
   600.000  Usable output time [seconds]
    90.000  Hub height [m]
   140.000  Grid height [m]
   140.000  Grid width [m]
     0.000  Vertical flow angle [degrees]
     0.000  Horizontal flow angle [degrees]


Meteorological Boundary Conditions:

    IECKAI  IEC Kaimal spectral model
         1  IEC standard: IEC 61400-1 Ed. 3: 2005
         C  IEC turbulence characteristic
       NTM  IEC Normal Turbulence Model
       N/A  IEC Extreme Turbulence Model (ETM) "c" parameter [m/s]
       IEC  Wind profile type
    90.000  Reference height [m]
    10.000  Reference wind speed [m/s]
       N/A  Jet height [m]
     0.200  Power law exponent
     0.030  Surface roughness length [m]


Non-IEC Meteorological Boundary Conditions:

       N/A  Site latitude [degrees]
       N/A  Gradient Richardson number
       N/A  Friction or shear velocity [m/s]
       N/A  Mixing layer depth [m]
       N/A  Mean hub u'w' Reynolds stress
       N/A  Mean hub u'v' Reynolds stress
       N/A  Mean hub v'w' Reynolds stress


Spatial Coherence Models:

       IEC  u-component coherence model
      NONE  v-component coherence model
      NONE  w-component coherence model
(   12.000, 0.353E-03)  u-component coherence parameters
                   N/A  v-component coherence parameters
                   N/A  w-component coherence parameters
       N/A  Coherence exponent


You have requested that the following file(s) be generated:

   5m_NoSc_NoTC.bts (AeroDyn/TurbSim full-field wind file)
   5m_NoSc_NoTC.wnd (AeroDyn/BLADED full-field wnd file)


Turbulence Simulation Scaling Parameter Summary:

   Turbulence model used                            =  IEC Kaimal
   Turbulence characteristic                        =  C
   IEC turbulence type                              =  Normal Turbulence Model
   IEC standard                                     =  IEC 61400-1 Ed. 3: 2005
   Mean wind speed at hub height                    =   10.000 m/s
   Expected value of turbulence intensity at 15 m/s =   12.000%
   Characteristic value of standard deviation       =    1.572 m/s
   Turbulence scale                                 =   42.000 m
   u-component integral scale                       =  340.200 m
   Coherency scale                                  =  340.200 m
   Characteristic value of hub turbulence intensity =   15.720%
   Gradient Richardson number                       =    0.000

   Wind profile type                                =  Power law on rotor disk, logarithmic elsewhere
   Power law exponent                               =    0.200
   Mean shear across rotor disk                     =    0.027 (m/s)/m
   Assumed rotor diameter                           =  140.000 m
   Surface roughness length                         =    0.030 m

   Nyquist frequency of turbulent wind field        =   10.000 Hz

   Number of time steps in the FFT                  =    12000
   Number of time steps output                      =    12000
   Number of points simulated                       =      225


Mean Flow Angles:

   Vertical   =   0.0 degrees
   Horizontal =   0.0 degrees

Mean Wind Speed Profile:

   Height    Wind Speed   Horizontal Angle  Vertical Angle  U-comp (X)   V-comp (Y)   W-comp (Z)
     (m)        (m/s)         (degrees)       (degrees)       (m/s)        (m/s)        (m/s)   
   ------    ----------   ----------------  --------------  ----------   ----------   ----------
    160.0       11.22            0.00            0.00         11.22         0.00         0.00
    150.0       11.08            0.00            0.00         11.08         0.00         0.00
    140.0       10.92            0.00            0.00         10.92         0.00         0.00
    130.0       10.76            0.00            0.00         10.76         0.00         0.00
    120.0       10.59            0.00            0.00         10.59         0.00         0.00
    110.0       10.41            0.00            0.00         10.41         0.00         0.00
    100.0       10.21            0.00            0.00         10.21         0.00         0.00
     90.0       10.00            0.00            0.00         10.00         0.00         0.00
     80.0        9.77            0.00            0.00          9.77         0.00         0.00
     70.0        9.51            0.00            0.00          9.51         0.00         0.00
     60.0        9.22            0.00            0.00          9.22         0.00         0.00
     50.0        8.89            0.00            0.00          8.89         0.00         0.00
     40.0        8.50            0.00            0.00          8.50         0.00         0.00
     30.0        8.03            0.00            0.00          8.03         0.00         0.00
     20.0        7.40            0.00            0.00          7.40         0.00         0.00


Harvested Random Seeds after Generation of the Random Numbers:

      3203703 Harvested seed # 1
     10422870 Harvested seed # 2
     16573147 Harvested seed # 3
      8850116 Harvested seed # 4
      2875905 Harvested seed # 5
      9701951 Harvested seed # 6
        57857 Harvested seed # 7
      3607266 Harvested seed # 8
   1060124535 Harvested seed # 9
   1520422230 Harvested seed #10
    519893723 Harvested seed #11
    310847940 Harvested seed #12


Hub-Height Simulated Turbulence Statistical Summary:

   Type of Wind        Min (m/s)   Mean (m/s)    Max (m/s)  Sigma (m/s)       TI (%)
   ----------------    ---------   ----------    ---------  -----------       ------
   Longitudinal (u)         5.27        10.00        15.87        1.391       13.915
   Lateral (v)             -4.11         0.00         4.07        1.226       12.261
   Vertical (w)            -2.74        -0.00         3.15        0.769        7.693
   U component              5.27        10.00        15.87        1.391       13.915
   V component             -4.11         0.00         4.07        1.226       12.261
   W component             -2.74        -0.00         3.15        0.769        7.693
   Horizontal (U&V)         5.34        10.08        15.87        1.383       13.723
   Total                    5.34        10.11        15.88        1.376       13.613

                       Min Reynolds     Mean Reynolds    Max Reynolds    Correlation
   Product             Stress (m/s)^2   Stress (m/s)^2   Stress (m/s)^2  Coefficient
   ----------------    --------------   --------------   --------------  -----------
   u'w'                     -8.795            -0.131             6.611        -0.123
   u'v'                    -11.592             0.054             9.382         0.032
   v'w'                     -4.942            -0.002             4.767        -0.002


   Friction Velocity (Ustar)  =      0.362 m/s
   Maximum Instantaneous TKE  =     17.560 (m/s)^2
   Maximum Instantaneous CTKE =      5.849 (m/s)^2


Grid Point Variance Summary:

   Y-coord  -70.00  -60.00  -50.00  -40.00  -30.00  -20.00  -10.00    0.00   10.00   20.00   30.00   40.00   50.00   60.00   70.00

   Height   Standard deviation at grid points for the u component:
   160.00    1.435   1.524   1.416   1.474   1.429   1.447   1.397   1.486   1.460   1.324   1.422   1.349   1.516   1.494   1.496
   150.00    1.510   1.329   1.425   1.521   1.389   1.389   1.459   1.449   1.496   1.355   1.356   1.370   1.373   1.417   1.503
   140.00    1.318   1.390   1.406   1.418   1.397   1.268   1.368   1.336   1.363   1.271   1.293   1.281   1.258   1.323   1.392
   130.00    1.433   1.434   1.336   1.420   1.314   1.386   1.279   1.307   1.293   1.219   1.248   1.248   1.257   1.429   1.441
   120.00    1.404   1.413   1.408   1.322   1.334   1.427   1.366   1.209   1.270   1.342   1.368   1.369   1.327   1.450   1.419
   110.00    1.318   1.337   1.327   1.343   1.376   1.436   1.437   1.271   1.272   1.394   1.343   1.428   1.464   1.456   1.443
   100.00    1.378   1.413   1.399   1.430   1.444   1.441   1.416   1.250   1.185   1.347   1.386   1.440   1.401   1.496   1.466
    90.00    1.572   1.350   1.263   1.339   1.448   1.383   1.412   1.391   1.227   1.405   1.378   1.472   1.522   1.584   1.590
    80.00    1.529   1.474   1.444   1.428   1.435   1.448   1.567   1.440   1.372   1.347   1.437   1.512   1.581   1.475   1.420
    70.00    1.442   1.518   1.566   1.455   1.508   1.472   1.490   1.491   1.501   1.594   1.589   1.637   1.572   1.479   1.524
    60.00    1.408   1.466   1.466   1.499   1.536   1.458   1.467   1.490   1.519   1.655   1.548   1.571   1.474   1.440   1.394
    50.00    1.436   1.476   1.538   1.563   1.487   1.480   1.485   1.446   1.485   1.514   1.452   1.427   1.500   1.446   1.277
    40.00    1.518   1.530   1.614   1.621   1.514   1.354   1.332   1.363   1.406   1.386   1.382   1.386   1.371   1.279   1.320
    30.00    1.569   1.600   1.576   1.642   1.448   1.429   1.287   1.311   1.255   1.357   1.401   1.328   1.141   1.298   1.263
    20.00    1.484   1.559   1.633   1.581   1.453   1.428   1.505   1.402   1.414   1.499   1.364   1.281   1.233   1.283   1.193

   Height   Standard deviation at grid points for the v component:
   160.00    1.226   1.226   1.226   1.226   1.226   1.226   1.226   1.226   1.226   1.226   1.226   1.226   1.226   1.226   1.226
   150.00    1.226   1.226   1.226   1.226   1.226   1.226   1.226   1.226   1.226   1.226   1.226   1.226   1.226   1.226   1.226
   140.00    1.226   1.226   1.226   1.226   1.226   1.226   1.226   1.226   1.226   1.226   1.226   1.226   1.226   1.226   1.226
   130.00    1.226   1.226   1.226   1.226   1.226   1.226   1.226   1.226   1.226   1.226   1.226   1.226   1.226   1.226   1.226
   120.00    1.226   1.226   1.226   1.226   1.226   1.226   1.226   1.226   1.226   1.226   1.226   1.226   1.226   1.226   1.226
   110.00    1.226   1.226   1.226   1.226   1.226   1.226   1.226   1.226   1.226   1.226   1.226   1.226   1.226   1.226   1.226
   100.00    1.226   1.226   1.226   1.226   1.226   1.226   1.226   1.226   1.226   1.226   1.226   1.226   1.226   1.226   1.226
    90.00    1.226   1.226   1.226   1.226   1.226   1.226   1.226   1.226   1.226   1.226   1.226   1.226   1.226   1.226   1.226
    80.00    1.226   1.226   1.226   1.226   1.226   1.226   1.226   1.226   1.226   1.226   1.226   1.226   1.226   1.226   1.226
    70.00    1.226   1.226   1.226   1.226   1.226   1.226   1.226   1.226   1.226   1.226   1.226   1.226   1.226   1.226   1.226
    60.00    1.226   1.226   1.226   1.226   1.226   1.226   1.226   1.226   1.226   1.226   1.226   1.226   1.226   1.226   1.226
    50.00    1.226   1.226   1.226   1.226   1.226   1.226   1.226   1.226   1.226   1.226   1.226   1.226   1.226   1.226   1.226
    40.00    1.226   1.226   1.226   1.226   1.226   1.226   1.226   1.226   1.226   1.226   1.226   1.226   1.226   1.226   1.226
    30.00    1.226   1.226   1.226   1.226   1.226   1.226   1.226   1.226   1.226   1.226   1.226   1.226   1.226   1.226   1.226
    20.00    1.226   1.226   1.226   1.226   1.226   1.226   1.226   1.226   1.226   1.226   1.226   1.226   1.226   1.226   1.226

   Height   Standard deviation at grid points for the w component:
   160.00    0.769   0.769   0.769   0.769   0.769   0.769   0.769   0.769   0.769   0.769   0.769   0.769   0.769   0.769   0.769
   150.00    0.769   0.769   0.769   0.769   0.769   0.769   0.769   0.769   0.769   0.769   0.769   0.769   0.769   0.769   0.769
   140.00    0.769   0.769   0.769   0.769   0.769   0.769   0.769   0.769   0.769   0.769   0.769   0.769   0.769   0.769   0.769
   130.00    0.769   0.769   0.769   0.769   0.769   0.769   0.769   0.769   0.769   0.769   0.769   0.769   0.769   0.769   0.769
   120.00    0.769   0.769   0.769   0.769   0.769   0.769   0.769   0.769   0.769   0.769   0.769   0.769   0.769   0.769   0.769
   110.00    0.769   0.769   0.769   0.769   0.769   0.769   0.769   0.769   0.769   0.769   0.769   0.769   0.769   0.769   0.769
   100.00    0.769   0.769   0.769   0.769   0.769   0.769   0.769   0.769   0.769   0.769   0.769   0.769   0.769   0.769   0.769
    90.00    0.769   0.769   0.769   0.769   0.769   0.769   0.769   0.769   0.769   0.769   0.769   0.769   0.769   0.769   0.769
    80.00    0.769   0.769   0.769   0.769   0.769   0.769   0.769   0.769   0.769   0.769   0.769   0.769   0.769   0.769   0.769
    70.00    0.769   0.769   0.769   0.769   0.769   0.769   0.769   0.769   0.769   0.769   0.769   0.769   0.769   0.769   0.769
    60.00    0.769   0.769   0.769   0.769   0.769   0.769   0.769   0.769   0.769   0.769   0.769   0.769   0.769   0.769   0.769
    50.00    0.769   0.769   0.769   0.769   0.769   0.769   0.769   0.769   0.769   0.769   0.769   0.769   0.769   0.769   0.769
    40.00    0.769   0.769   0.769   0.769   0.769   0.769   0.769   0.769   0.769   0.769   0.769   0.769   0.769   0.769   0.769
    30.00    0.769   0.769   0.769   0.769   0.769   0.769   0.769   0.769   0.769   0.769   0.769   0.769   0.769   0.769   0.769
    20.00    0.769   0.769   0.769   0.769   0.769   0.769   0.769   0.769   0.769   0.769   0.769   0.769   0.769   0.769   0.769

   Mean standard deviation across all grid points:
      u component:    1.419 m/s
      v component:    1.226 m/s
      w component:    0.769 m/s


U-component (X) statistics from the interpolated hub point:

   Mean =  10.0000 m/s
   TI   =  13.9147 %


Normalizing Parameters for Binary Data (approximate statistics):

   UBar  =  10.0000 m/s
   TI(u) =  13.9147 %
   TI(v) =  12.2606 %
   TI(w) =   7.6928 %

   Height Offset =   0.0000 m
   Grid Base     =  20.0000 m

Creating a PERIODIC output file.


Processing complete.  227.65 CPU seconds used.
