
This summary file was generated by TurbSim (v2.00.01a-bjj, 14-Oct-2014) on 25-Oct-2015 at 11:22:31.


Runtime Options:

    123456  Random seed #1
    789012  Random seed #2
         F  Output binary HH turbulence parameters?
         F  Output formatted turbulence parameters?
         F  Output AeroDyn HH files?
         T  Output AeroDyn FF files?
         T  Output BLADED FF files?
         F  Output tower data?
         F  Output formatted FF files?
         F  Output coherent turbulence time step file?
         T  Clockwise rotation when looking downwind?
 0 -  NONE  IEC turbulence models scaled to exact specified standard deviation


Turbine/Model Specifications:

         5  Vertical grid-point matrix dimension
         5  Horizontal grid-point matrix dimension
     0.050  Time step [seconds]
   600.000  Analysis time [seconds]
   600.000  Usable output time [seconds]
    90.000  Hub height [m]
   140.000  Grid height [m]
   140.000  Grid width [m]
     0.000  Vertical flow angle [degrees]
     0.000  Horizontal flow angle [degrees]


Meteorological Boundary Conditions:

    USRINP  Uniform user-input spectral model
       N/A  IEC standard
       N/A  IEC turbulence characteristic
       N/A  IEC turbulence type
       N/A  IEC Extreme Turbulence Model (ETM) "c" parameter [m/s]
       PL   Wind profile type
    90.000  Reference height [m]
    10.000  Reference wind speed [m/s]
       N/A  Jet height [m]
     0.200  Power law exponent
     0.030  Surface roughness length [m]


Non-IEC Meteorological Boundary Conditions:

    45.000  Site latitude [degrees]
     0.050  Gradient Richardson number
     0.480  Friction or shear velocity [m/s]
       N/A  Mixing layer depth [m]
       N/A  Mean hub u'w' Reynolds stress
       N/A  Mean hub u'v' Reynolds stress
       N/A  Mean hub v'w' Reynolds stress


Spatial Coherence Models:

       IEC  u-component coherence model
      NONE  v-component coherence model
      NONE  w-component coherence model
(   12.000, 0.353E-03)  u-component coherence parameters
                   N/A  v-component coherence parameters
                   N/A  w-component coherence parameters
       N/A  Coherence exponent


You have requested that the following file(s) be generated:

   5pts_Usr.bts (AeroDyn/TurbSim full-field wind file)
   5pts_Usr.wnd (AeroDyn/BLADED full-field wnd file)


Turbulence Simulation Scaling Parameter Summary:

   Turbulence model used                            =  Uniform user-input
   Gradient Richardson number                       =    0.050
   Monin-Obukhov (M-O) z/L parameter                =    0.067
   Monin-Obukhov (M-O) length scale                 = 1350.000 m
   Mean wind speed at hub height                    =   10.000 m/s

   Wind profile type                                =  Power law
   Power law exponent                               =    0.200
   Mean shear across rotor disk                     =    0.027 (m/s)/m
   Assumed rotor diameter                           =  140.000 m
   Surface roughness length                         =    0.030 m

   Nyquist frequency of turbulent wind field        =   10.000 Hz

   Number of time steps in the FFT                  =    12000
   Number of time steps output                      =    12000
   Number of points simulated                       =       25


Mean Flow Angles:

   Vertical   =   0.0 degrees
   Horizontal =   0.0 degrees

Mean Wind Speed Profile:

   Height    Wind Speed   Horizontal Angle  Vertical Angle  U-comp (X)   V-comp (Y)   W-comp (Z)
     (m)        (m/s)         (degrees)       (degrees)       (m/s)        (m/s)        (m/s)   
   ------    ----------   ----------------  --------------  ----------   ----------   ----------
    160.0       11.22            0.00            0.00         11.22         0.00         0.00
    125.0       10.68            0.00            0.00         10.68         0.00         0.00
     90.0       10.00            0.00            0.00         10.00         0.00         0.00
     55.0        9.06            0.00            0.00          9.06         0.00         0.00
     20.0        7.40            0.00            0.00          7.40         0.00         0.00


Harvested Random Seeds after Generation of the Random Numbers:

     10019333 Harvested seed # 1
      6884003 Harvested seed # 2
      9167414 Harvested seed # 3
     12978756 Harvested seed # 4
      3269176 Harvested seed # 5
      4328014 Harvested seed # 6
      4121126 Harvested seed # 7
     12716644 Harvested seed # 8
    647519493 Harvested seed # 9
  -1486247517 Harvested seed #10
     76252982 Harvested seed #11
   -389673660 Harvested seed #12


Hub-Height Simulated Turbulence Statistical Summary:

   Type of Wind        Min (m/s)   Mean (m/s)    Max (m/s)  Sigma (m/s)       TI (%)
   ----------------    ---------   ----------    ---------  -----------       ------
   Longitudinal (u)         5.23        10.00        16.67        1.834       18.337
   Lateral (v)             -4.47        -0.00         8.11        1.600       16.000
   Vertical (w)            -4.34        -0.00         4.39        1.000       10.000
   U component              5.23        10.00        16.67        1.834       18.337
   V component             -4.47        -0.00         8.11        1.600       16.000
   W component             -4.34        -0.00         4.39        1.000       10.000
   Horizontal (U&V)         5.26        10.13        16.80        1.827       18.038
   Total                    5.40        10.18        16.80        1.821       17.890

                       Min Reynolds     Mean Reynolds    Max Reynolds    Correlation
   Product             Stress (m/s)^2   Stress (m/s)^2   Stress (m/s)^2  Coefficient
   ----------------    --------------   --------------   --------------  -----------
   u'w'                     -9.489             0.352            15.415         0.192
   u'v'                    -17.890             0.281            15.717         0.096
   v'w'                    -10.660             0.151            12.594         0.094


   Friction Velocity (Ustar)  =      0.594 m/s
   Maximum Instantaneous TKE  =     33.786 (m/s)^2
   Maximum Instantaneous CTKE =     10.829 (m/s)^2


Grid Point Variance Summary:

   Y-coord  -70.00  -35.00    0.00   35.00   70.00

   Height   Standard deviation at grid points for the u component:
   160.00    2.010   1.732   1.705   1.843   1.747
   125.00    1.876   1.909   1.641   1.868   1.737
    90.00    1.973   1.871   1.834   1.796   1.687
    55.00    2.120   2.330   2.084   2.022   2.076
    20.00    2.000   2.088   2.152   2.292   2.035

   Height   Standard deviation at grid points for the v component:
   160.00    1.600   1.600   1.600   1.600   1.600
   125.00    1.600   1.600   1.600   1.600   1.600
    90.00    1.600   1.600   1.600   1.600   1.600
    55.00    1.600   1.600   1.600   1.600   1.600
    20.00    1.600   1.600   1.600   1.600   1.600

   Height   Standard deviation at grid points for the w component:
   160.00    1.000   1.000   1.000   1.000   1.000
   125.00    1.000   1.000   1.000   1.000   1.000
    90.00    1.000   1.000   1.000   1.000   1.000
    55.00    1.000   1.000   1.000   1.000   1.000
    20.00    1.000   1.000   1.000   1.000   1.000

   Mean standard deviation across all grid points:
      u component:    1.937 m/s
      v component:    1.600 m/s
      w component:    1.000 m/s


U-component (X) statistics from the interpolated hub point:

   Mean =  10.0000 m/s
   TI   =  18.3368 %


Normalizing Parameters for Binary Data (approximate statistics):

   UBar  =  10.0000 m/s
   TI(u) =  18.3368 %
   TI(v) =  16.0000 %
   TI(w) =  10.0002 %

   Height Offset =   0.0000 m
   Grid Base     =  20.0000 m

Creating a PERIODIC output file.


Processing complete.  0.88384 CPU seconds used.
