
"These predictions were generated by FAST (v6.10a-jmj, 21-Feb-2007) on 01-Apr-2007 at 16:55:28."
"The aerodynamic calculations were made by AeroDyn (12.60i-pjm, 16-Nov-2006)."

 NREL 5.0 MW Baseline Wind Turbine for Use in Offshore Analysis.

    Time	WindVxi	GenPwr	RotSpeed	OoPDefl1	IPDefl1	OoPDefl2	IPDefl2	OoPDefl3	IPDefl3	RootFxc1	RootFyc1	RootFzc1	RotTorq
   (sec)	(m/sec)	(kW)	(rpm)	(m)	(m)	(m)	(m)	(m)	(m)	(kN)	(kN)	(kN)	(kN·m)
30.00	5.757E+00	4.984E+02	7.660E+00	1.902E+00	3.034E-01	1.796E+00	-3.988E-01	2.123E+00	-4.002E-01	1.077E+02	1.680E+02	2.428E+02	6.655E+02
30.05	5.664E+00	4.999E+02	7.662E+00	1.887E+00	3.067E-01	1.765E+00	-4.138E-01	2.125E+00	-3.862E-01	1.065E+02	1.682E+02	2.362E+02	6.668E+02
30.10	5.711E+00	5.013E+02	7.664E+00	1.858E+00	3.102E-01	1.752E+00	-4.286E-01	2.130E+00	-3.731E-01	1.045E+02	1.678E+02	2.294E+02	6.731E+02
30.15	5.439E+00	5.027E+02	7.665E+00	1.818E+00	3.136E-01	1.757E+00	-4.428E-01	2.136E+00	-3.607E-01	1.018E+02	1.674E+02	2.229E+02	6.804E+02
30.20	5.432E+00	5.042E+02	7.666E+00	1.770E+00	3.163E-01	1.774E+00	-4.562E-01	2.143E+00	-3.486E-01	9.960E+01	1.665E+02	2.164E+02	6.857E+02
30.25	5.512E+00	5.056E+02	7.668E+00	1.717E+00	3.178E-01	1.802E+00	-4.689E-01	2.152E+00	-3.365E-01	9.760E+01	1.655E+02	2.102E+02	6.887E+02
30.30	5.553E+00	5.070E+02	7.670E+00	1.666E+00	3.181E-01	1.837E+00	-4.809E-01	2.164E+00	-3.239E-01	9.404E+01	1.642E+02	2.035E+02	6.914E+02
30.35	5.783E+00	5.085E+02	7.671E+00	1.620E+00	3.166E-01	1.879E+00	-4.931E-01	2.180E+00	-3.107E-01	9.173E+01	1.621E+02	1.971E+02	6.906E+02
30.40	5.879E+00	5.099E+02	7.672E+00	1.582E+00	3.132E-01	1.928E+00	-5.059E-01	2.201E+00	-2.966E-01	8.993E+01	1.598E+02	1.912E+02	6.877E+02
30.45	5.835E+00	5.113E+02	7.673E+00	1.555E+00	3.077E-01	1.985E+00	-5.197E-01	2.223E+00	-2.810E-01	8.842E+01	1.573E+02	1.851E+02	6.843E+02
30.50	5.748E+00	5.126E+02	7.674E+00	1.543E+00	2.999E-01	2.049E+00	-5.345E-01	2.243E+00	-2.635E-01	8.860E+01	1.543E+02	1.790E+02	6.821E+02
30.55	5.675E+00	5.138E+02	7.677E+00	1.548E+00	2.900E-01	2.114E+00	-5.499E-01	2.256E+00	-2.440E-01	9.123E+01	1.508E+02	1.733E+02	6.859E+02
30.60	5.616E+00	5.150E+02	7.678E+00	1.569E+00	2.784E-01	2.173E+00	-5.651E-01	2.264E+00	-2.229E-01	9.045E+01	1.480E+02	1.676E+02	6.954E+02
30.65	5.605E+00	5.162E+02	7.679E+00	1.606E+00	2.650E-01	2.216E+00	-5.802E-01	2.266E+00	-2.014E-01	9.257E+01	1.439E+02	1.613E+02	7.024E+02
30.70	5.766E+00	5.175E+02	7.681E+00	1.653E+00	2.505E-01	2.238E+00	-5.943E-01	2.263E+00	-1.798E-01	9.283E+01	1.407E+02	1.558E+02	7.055E+02
30.75	5.937E+00	5.188E+02	7.684E+00	1.706E+00	2.361E-01	2.240E+00	-6.069E-01	2.258E+00	-1.585E-01	9.314E+01	1.374E+02	1.503E+02	7.090E+02
30.80	5.776E+00	5.202E+02	7.686E+00	1.757E+00	2.226E-01	2.225E+00	-6.174E-01	2.253E+00	-1.376E-01	9.388E+01	1.328E+02	1.442E+02	7.141E+02
30.85	5.750E+00	5.217E+02	7.688E+00	1.805E+00	2.097E-01	2.200E+00	-6.259E-01	2.250E+00	-1.172E-01	9.497E+01	1.289E+02	1.393E+02	7.169E+02
30.90	5.712E+00	5.231E+02	7.690E+00	1.847E+00	1.969E-01	2.168E+00	-6.327E-01	2.249E+00	-9.833E-02	9.564E+01	1.250E+02	1.342E+02	7.153E+02
30.95	5.519E+00	5.246E+02	7.692E+00	1.887E+00	1.836E-01	2.131E+00	-6.378E-01	2.248E+00	-8.072E-02	9.574E+01	1.203E+02	1.285E+02	7.110E+02
31.00	5.526E+00	5.261E+02	7.694E+00	1.922E+00	1.695E-01	2.090E+00	-6.409E-01	2.239E+00	-6.325E-02	9.616E+01	1.162E+02	1.240E+02	7.077E+02
31.05	5.544E+00	5.275E+02	7.696E+00	1.954E+00	1.549E-01	2.045E+00	-6.419E-01	2.217E+00	-4.510E-02	9.598E+01	1.111E+02	1.195E+02	7.086E+02
31.10	5.458E+00	5.289E+02	7.698E+00	1.980E+00	1.394E-01	2.002E+00	-6.413E-01	2.182E+00	-2.617E-02	9.507E+01	1.057E+02	1.149E+02	7.109E+02
31.15	5.561E+00	5.302E+02	7.698E+00	2.000E+00	1.227E-01	1.963E+00	-6.397E-01	2.138E+00	-6.562E-03	9.546E+01	9.981E+01	1.108E+02	7.108E+02
31.20	5.643E+00	5.315E+02	7.700E+00	2.017E+00	1.044E-01	1.934E+00	-6.374E-01	2.091E+00	1.327E-02	9.471E+01	9.460E+01	1.073E+02	7.096E+02
31.25	5.699E+00	5.328E+02	7.702E+00	2.033E+00	8.455E-02	1.914E+00	-6.346E-01	2.047E+00	3.286E-02	9.380E+01	8.818E+01	1.033E+02	7.118E+02
31.30	5.627E+00	5.340E+02	7.703E+00	2.049E+00	6.331E-02	1.902E+00	-6.316E-01	2.010E+00	5.220E-02	9.186E+01	8.179E+01	9.962E+01	7.181E+02
31.35	5.742E+00	5.353E+02	7.705E+00	2.065E+00	4.117E-02	1.899E+00	-6.283E-01	1.981E+00	7.133E-02	9.158E+01	7.483E+01	9.648E+01	7.253E+02
31.40	5.647E+00	5.366E+02	7.707E+00	2.076E+00	1.903E-02	1.904E+00	-6.252E-01	1.958E+00	9.034E-02	8.999E+01	6.810E+01	9.359E+01	7.303E+02
31.45	5.671E+00	5.380E+02	7.708E+00	2.080E+00	-2.456E-03	1.917E+00	-6.227E-01	1.934E+00	1.093E-01	8.953E+01	6.092E+01	9.079E+01	7.299E+02
31.50	5.728E+00	5.394E+02	7.710E+00	2.076E+00	-2.289E-02	1.943E+00	-6.213E-01	1.907E+00	1.285E-01	9.136E+01	5.383E+01	8.844E+01	7.266E+02
31.55	5.760E+00	5.407E+02	7.712E+00	2.068E+00	-4.204E-02	1.987E+00	-6.213E-01	1.876E+00	1.480E-01	9.379E+01	4.679E+01	8.626E+01	7.268E+02
31.60	5.757E+00	5.420E+02	7.715E+00	2.060E+00	-6.031E-02	2.049E+00	-6.230E-01	1.844E+00	1.672E-01	9.508E+01	3.976E+01	8.409E+01	7.319E+02
31.65	5.509E+00	5.434E+02	7.717E+00	2.058E+00	-7.852E-02	2.127E+00	-6.263E-01	1.813E+00	1.854E-01	9.619E+01	3.290E+01	8.224E+01	7.379E+02
31.70	5.420E+00	5.448E+02	7.719E+00	2.066E+00	-9.716E-02	2.210E+00	-6.303E-01	1.790E+00	2.020E-01	9.728E+01	2.621E+01	8.078E+01	7.420E+02
31.75	5.328E+00	5.463E+02	7.722E+00	2.083E+00	-1.159E-01	2.285E+00	-6.332E-01	1.776E+00	2.169E-01	9.710E+01	1.973E+01	7.976E+01	7.470E+02
31.80	5.050E+00	5.479E+02	7.725E+00	2.106E+00	-1.343E-01	2.341E+00	-6.334E-01	1.773E+00	2.301E-01	9.625E+01	1.254E+01	7.904E+01	7.529E+02
31.85	5.071E+00	5.495E+02	7.728E+00	2.131E+00	-1.526E-01	2.373E+00	-6.302E-01	1.778E+00	2.413E-01	9.556E+01	5.640E+00	7.866E+01	7.555E+02
31.90	4.998E+00	5.512E+02	7.730E+00	2.153E+00	-1.711E-01	2.383E+00	-6.235E-01	1.788E+00	2.503E-01	9.566E+01	-1.212E+00	7.844E+01	7.549E+02
31.95	4.938E+00	5.530E+02	7.733E+00	2.172E+00	-1.900E-01	2.375E+00	-6.135E-01	1.801E+00	2.572E-01	9.663E+01	-8.326E+00	7.842E+01	7.542E+02
32.00	5.227E+00	5.548E+02	7.737E+00	2.187E+00	-2.096E-01	2.358E+00	-6.007E-01	1.818E+00	2.621E-01	9.925E+01	-1.575E+01	7.871E+01	7.565E+02
32.05	5.142E+00	5.566E+02	7.741E+00	2.198E+00	-2.297E-01	2.340E+00	-5.856E-01	1.840E+00	2.653E-01	1.017E+02	-2.302E+01	7.946E+01	7.635E+02
32.10	5.026E+00	5.585E+02	7.745E+00	2.204E+00	-2.499E-01	2.323E+00	-5.692E-01	1.868E+00	2.671E-01	1.039E+02	-3.036E+01	8.076E+01	7.719E+02
32.15	5.061E+00	5.605E+02	7.748E+00	2.204E+00	-2.702E-01	2.307E+00	-5.521E-01	1.900E+00	2.673E-01	1.062E+02	-3.784E+01	8.246E+01	7.770E+02
32.20	5.117E+00	5.627E+02	7.752E+00	2.198E+00	-2.901E-01	2.290E+00	-5.350E-01	1.935E+00	2.665E-01	1.081E+02	-4.475E+01	8.433E+01	7.795E+02
32.25	5.226E+00	5.649E+02	7.757E+00	2.185E+00	-3.086E-01	2.272E+00	-5.180E-01	1.971E+00	2.657E-01	1.089E+02	-5.168E+01	8.627E+01	7.854E+02
32.30	5.264E+00	5.672E+02	7.762E+00	2.167E+00	-3.256E-01	2.250E+00	-5.012E-01	2.005E+00	2.655E-01	1.091E+02	-5.879E+01	8.844E+01	7.939E+02
32.35	5.254E+00	5.698E+02	7.767E+00	2.146E+00	-3.413E-01	2.222E+00	-4.845E-01	2.034E+00	2.664E-01	1.087E+02	-6.592E+01	9.080E+01	8.006E+02
32.40	5.398E+00	5.724E+02	7.770E+00	2.124E+00	-3.562E-01	2.194E+00	-4.683E-01	2.056E+00	2.685E-01	1.074E+02	-7.245E+01	9.335E+01	8.002E+02
32.45	5.444E+00	5.751E+02	7.774E+00	2.103E+00	-3.706E-01	2.173E+00	-4.531E-01	2.068E+00	2.718E-01	1.056E+02	-7.885E+01	9.640E+01	7.929E+02
32.50	5.437E+00	5.778E+02	7.777E+00	2.084E+00	-3.846E-01	2.166E+00	-4.392E-01	2.067E+00	2.764E-01	1.042E+02	-8.543E+01	9.995E+01	7.835E+02
32.55	5.452E+00	5.803E+02	7.781E+00	2.067E+00	-3.983E-01	2.178E+00	-4.267E-01	2.052E+00	2.822E-01	1.024E+02	-9.154E+01	1.035E+02	7.768E+02
32.60	5.366E+00	5.828E+02	7.783E+00	2.052E+00	-4.119E-01	2.206E+00	-4.154E-01	2.020E+00	2.885E-01	1.007E+02	-9.733E+01	1.070E+02	7.727E+02
32.65	5.307E+00	5.851E+02	7.784E+00	2.037E+00	-4.258E-01	2.243E+00	-4.052E-01	1.974E+00	2.947E-01	9.997E+01	-1.033E+02	1.111E+02	7.702E+02
32.70	5.434E+00	5.873E+02	7.786E+00	2.023E+00	-4.398E-01	2.279E+00	-3.948E-01	1.916E+00	3.003E-01	1.008E+02	-1.092E+02	1.154E+02	7.693E+02
32.75	5.257E+00	5.893E+02	7.787E+00	2.010E+00	-4.538E-01	2.305E+00	-3.826E-01	1.850E+00	3.052E-01	1.019E+02	-1.147E+02	1.197E+02	7.728E+02
32.80	5.241E+00	5.912E+02	7.789E+00	2.002E+00	-4.677E-01	2.317E+00	-3.681E-01	1.780E+00	3.090E-01	1.025E+02	-1.201E+02	1.246E+02	7.802E+02
32.85	5.271E+00	5.931E+02	7.789E+00	2.001E+00	-4.819E-01	2.316E+00	-3.517E-01	1.715E+00	3.106E-01	1.044E+02	-1.257E+02	1.298E+02	7.860E+02
32.90	5.309E+00	5.949E+02	7.790E+00	2.009E+00	-4.967E-01	2.307E+00	-3.339E-01	1.660E+00	3.094E-01	1.041E+02	-1.304E+02	1.347E+02	7.892E+02
32.95	5.321E+00	5.967E+02	7.793E+00	2.025E+00	-5.116E-01	2.297E+00	-3.151E-01	1.617E+00	3.056E-01	1.051E+02	-1.356E+02	1.393E+02	7.937E+02
33.00	5.415E+00	5.985E+02	7.794E+00	2.046E+00	-5.261E-01	2.292E+00	-2.957E-01	1.587E+00	3.001E-01	1.043E+02	-1.405E+02	1.447E+02	7.997E+02
33.05	5.492E+00	6.003E+02	7.796E+00	2.068E+00	-5.400E-01	2.293E+00	-2.761E-01	1.566E+00	2.933E-01	1.049E+02	-1.452E+02	1.499E+02	8.029E+02
33.10	5.299E+00	6.020E+02	7.797E+00	2.087E+00	-5.528E-01	2.300E+00	-2.563E-01	1.553E+00	2.856E-01	1.057E+02	-1.495E+02	1.551E+02	8.027E+02
33.15	5.273E+00	6.038E+02	7.799E+00	2.100E+00	-5.641E-01	2.307E+00	-2.364E-01	1.549E+00	2.774E-01	1.078E+02	-1.536E+02	1.610E+02	8.006E+02
33.20	5.301E+00	6.054E+02	7.799E+00	2.106E+00	-5.741E-01	2.308E+00	-2.162E-01	1.557E+00	2.679E-01	1.099E+02	-1.573E+02	1.672E+02	7.954E+02
33.25	5.381E+00	6.070E+02	7.800E+00	2.107E+00	-5.829E-01	2.299E+00	-1.959E-01	1.581E+00	2.566E-01	1.112E+02	-1.606E+02	1.729E+02	7.900E+02
33.30	5.201E+00	6.084E+02	7.801E+00	2.107E+00	-5.909E-01	2.281E+00	-1.758E-01	1.621E+00	2.434E-01	1.128E+02	-1.642E+02	1.789E+02	7.878E+02
33.35	5.198E+00	6.096E+02	7.801E+00	2.107E+00	-5.985E-01	2.260E+00	-1.564E-01	1.676E+00	2.285E-01	1.097E+02	-1.667E+02	1.853E+02	7.880E+02
33.40	5.345E+00	6.108E+02	7.801E+00	2.108E+00	-6.058E-01	2.242E+00	-1.381E-01	1.738E+00	2.123E-01	1.075E+02	-1.696E+02	1.907E+02	7.892E+02
33.45	5.340E+00	6.118E+02	7.802E+00	2.104E+00	-6.125E-01	2.231E+00	-1.210E-01	1.798E+00	1.964E-01	1.051E+02	-1.723E+02	1.973E+02	7.951E+02
33.50	5.520E+00	6.128E+02	7.803E+00	2.094E+00	-6.182E-01	2.229E+00	-1.049E-01	1.847E+00	1.814E-01	1.027E+02	-1.745E+02	2.045E+02	8.037E+02
33.55	5.558E+00	6.139E+02	7.803E+00	2.075E+00	-6.227E-01	2.233E+00	-8.940E-02	1.882E+00	1.672E-01	1.001E+02	-1.760E+02	2.107E+02	8.103E+02
33.60	5.488E+00	6.149E+02	7.804E+00	2.047E+00	-6.261E-01	2.239E+00	-7.410E-02	1.905E+00	1.535E-01	9.883E+01	-1.771E+02	2.178E+02	8.150E+02
33.65	5.452E+00	6.160E+02	7.806E+00	2.017E+00	-6.285E-01	2.242E+00	-5.821E-02	1.923E+00	1.395E-01	1.014E+02	-1.791E+02	2.252E+02	8.190E+02
33.70	5.401E+00	6.172E+02	7.807E+00	1.993E+00	-6.303E-01	2.242E+00	-4.093E-02	1.945E+00	1.245E-01	1.014E+02	-1.804E+02	2.323E+02	8.218E+02
33.75	5.490E+00	6.183E+02	7.808E+00	1.984E+00	-6.327E-01	2.238E+00	-2.240E-02	1.977E+00	1.074E-01	1.003E+02	-1.814E+02	2.388E+02	8.195E+02
33.80	5.430E+00	6.195E+02	7.809E+00	1.994E+00	-6.364E-01	2.232E+00	-3.131E-03	2.020E+00	8.793E-02	9.961E+01	-1.821E+02	2.462E+02	8.144E+02
33.85	5.342E+00	6.205E+02	7.811E+00	2.021E+00	-6.411E-01	2.229E+00	1.694E-02	2.070E+00	6.693E-02	9.807E+01	-1.826E+02	2.536E+02	8.132E+02
33.90	5.246E+00	6.216E+02	7.814E+00	2.057E+00	-6.454E-01	2.228E+00	3.756E-02	2.117E+00	4.544E-02	9.711E+01	-1.833E+02	2.598E+02	8.182E+02
33.95	5.204E+00	6.227E+02	7.816E+00	2.092E+00	-6.485E-01	2.228E+00	5.800E-02	2.151E+00	2.454E-02	9.844E+01	-1.837E+02	2.668E+02	8.270E+02
34.00	5.190E+00	6.238E+02	7.816E+00	2.122E+00	-6.502E-01	2.226E+00	7.763E-02	2.167E+00	4.445E-03	1.013E+02	-1.834E+02	2.743E+02	8.313E+02
34.05	5.030E+00	6.250E+02	7.817E+00	2.145E+00	-6.503E-01	2.217E+00	9.650E-02	2.165E+00	-1.471E-02	1.058E+02	-1.829E+02	2.808E+02	8.299E+02
34.10	5.027E+00	6.262E+02	7.819E+00	2.166E+00	-6.490E-01	2.197E+00	1.148E-01	2.149E+00	-3.276E-02	1.106E+02	-1.818E+02	2.880E+02	8.275E+02
34.15	5.044E+00	6.274E+02	7.821E+00	2.192E+00	-6.468E-01	2.167E+00	1.325E-01	2.128E+00	-5.025E-02	1.145E+02	-1.803E+02	2.953E+02	8.265E+02
34.20	5.127E+00	6.285E+02	7.823E+00	2.228E+00	-6.439E-01	2.131E+00	1.493E-01	2.109E+00	-6.788E-02	1.149E+02	-1.784E+02	3.020E+02	8.276E+02
34.25	5.145E+00	6.297E+02	7.824E+00	2.271E+00	-6.404E-01	2.095E+00	1.642E-01	2.096E+00	-8.624E-02	1.121E+02	-1.761E+02	3.083E+02	8.282E+02
34.30	5.125E+00	6.308E+02	7.825E+00	2.310E+00	-6.359E-01	2.062E+00	1.770E-01	2.088E+00	-1.054E-01	1.098E+02	-1.736E+02	3.149E+02	8.278E+02
34.35	5.143E+00	6.319E+02	7.826E+00	2.335E+00	-6.294E-01	2.035E+00	1.880E-01	2.082E+00	-1.247E-01	1.078E+02	-1.707E+02	3.215E+02	8.282E+02
34.40	5.295E+00	6.330E+02	7.828E+00	2.339E+00	-6.204E-01	2.013E+00	1.979E-01	2.074E+00	-1.436E-01	1.079E+02	-1.677E+02	3.280E+02	8.307E+02
34.45	5.399E+00	6.340E+02	7.829E+00	2.323E+00	-6.090E-01	1.997E+00	2.074E-01	2.059E+00	-1.616E-01	1.096E+02	-1.643E+02	3.349E+02	8.348E+02
34.50	5.405E+00	6.351E+02	7.830E+00	2.292E+00	-5.960E-01	1.986E+00	2.165E-01	2.040E+00	-1.792E-01	1.119E+02	-1.605E+02	3.415E+02	8.367E+02
34.55	5.331E+00	6.362E+02	7.831E+00	2.253E+00	-5.822E-01	1.979E+00	2.253E-01	2.019E+00	-1.968E-01	1.140E+02	-1.567E+02	3.477E+02	8.364E+02
34.60	5.322E+00	6.373E+02	7.833E+00	2.214E+00	-5.685E-01	1.980E+00	2.338E-01	2.003E+00	-2.148E-01	1.161E+02	-1.528E+02	3.541E+02	8.395E+02
34.65	5.499E+00	6.384E+02	7.835E+00	2.178E+00	-5.549E-01	1.988E+00	2.419E-01	1.998E+00	-2.332E-01	1.138E+02	-1.481E+02	3.603E+02	8.462E+02
34.70	5.617E+00	6.396E+02	7.837E+00	2.146E+00	-5.420E-01	2.004E+00	2.492E-01	2.004E+00	-2.525E-01	1.123E+02	-1.445E+02	3.656E+02	8.509E+02
34.75	5.557E+00	6.408E+02	7.839E+00	2.117E+00	-5.295E-01	2.023E+00	2.558E-01	2.022E+00	-2.724E-01	1.103E+02	-1.398E+02	3.716E+02	8.535E+02
34.80	5.599E+00	6.421E+02	7.840E+00	2.092E+00	-5.171E-01	2.042E+00	2.622E-01	2.048E+00	-2.928E-01	1.076E+02	-1.348E+02	3.772E+02	8.531E+02
34.85	5.523E+00	6.434E+02	7.842E+00	2.070E+00	-5.046E-01	2.054E+00	2.686E-01	2.082E+00	-3.135E-01	1.056E+02	-1.302E+02	3.820E+02	8.501E+02
34.90	5.619E+00	6.447E+02	7.845E+00	2.056E+00	-4.920E-01	2.056E+00	2.753E-01	2.118E+00	-3.340E-01	1.051E+02	-1.251E+02	3.872E+02	8.494E+02
34.95	5.464E+00	6.460E+02	7.846E+00	2.052E+00	-4.792E-01	2.045E+00	2.823E-01	2.154E+00	-3.544E-01	1.057E+02	-1.198E+02	3.921E+02	8.501E+02
35.00	5.443E+00	6.473E+02	7.847E+00	2.059E+00	-4.665E-01	2.019E+00	2.894E-01	2.188E+00	-3.746E-01	1.082E+02	-1.149E+02	3.962E+02	8.490E+02
35.05	5.502E+00	6.485E+02	7.848E+00	2.077E+00	-4.540E-01	1.979E+00	2.964E-01	2.218E+00	-3.946E-01	1.111E+02	-1.091E+02	4.004E+02	8.472E+02
35.10	5.623E+00	6.497E+02	7.850E+00	2.107E+00	-4.415E-01	1.926E+00	3.034E-01	2.242E+00	-4.137E-01	1.164E+02	-1.031E+02	4.045E+02	8.464E+02
35.15	5.863E+00	6.508E+02	7.851E+00	2.148E+00	-4.287E-01	1.865E+00	3.098E-01	2.259E+00	-4.317E-01	1.208E+02	-9.712E+01	4.080E+02	8.477E+02
35.20	6.068E+00	6.519E+02	7.852E+00	2.195E+00	-4.151E-01	1.804E+00	3.148E-01	2.269E+00	-4.487E-01	1.246E+02	-9.113E+01	4.112E+02	8.506E+02
35.25	6.106E+00	6.530E+02	7.852E+00	2.242E+00	-4.007E-01	1.752E+00	3.175E-01	2.274E+00	-4.650E-01	1.269E+02	-8.421E+01	4.142E+02	8.518E+02
35.30	6.096E+00	6.540E+02	7.852E+00	2.285E+00	-3.855E-01	1.712E+00	3.168E-01	2.278E+00	-4.814E-01	1.274E+02	-7.695E+01	4.165E+02	8.476E+02
35.35	6.212E+00	6.550E+02	7.852E+00	2.318E+00	-3.690E-01	1.685E+00	3.133E-01	2.284E+00	-4.977E-01	1.283E+02	-6.966E+01	4.185E+02	8.427E+02
35.40	6.206E+00	6.558E+02	7.854E+00	2.343E+00	-3.514E-01	1.666E+00	3.081E-01	2.291E+00	-5.132E-01	1.304E+02	-6.234E+01	4.204E+02	8.436E+02
35.45	6.169E+00	6.566E+02	7.855E+00	2.361E+00	-3.329E-01	1.653E+00	3.025E-01	2.298E+00	-5.272E-01	1.300E+02	-5.481E+01	4.224E+02	8.507E+02
35.50	6.171E+00	6.574E+02	7.854E+00	2.377E+00	-3.149E-01	1.641E+00	2.965E-01	2.300E+00	-5.401E-01	1.300E+02	-4.804E+01	4.240E+02	8.543E+02
35.55	6.158E+00	6.581E+02	7.854E+00	2.397E+00	-2.987E-01	1.634E+00	2.905E-01	2.296E+00	-5.521E-01	1.302E+02	-4.085E+01	4.256E+02	8.549E+02
35.60	6.313E+00	6.589E+02	7.855E+00	2.422E+00	-2.841E-01	1.633E+00	2.848E-01	2.285E+00	-5.628E-01	1.286E+02	-3.334E+01	4.268E+02	8.574E+02
35.65	6.356E+00	6.596E+02	7.857E+00	2.448E+00	-2.702E-01	1.644E+00	2.789E-01	2.269E+00	-5.725E-01	1.279E+02	-2.700E+01	4.273E+02	8.617E+02
35.70	6.392E+00	6.605E+02	7.859E+00	2.467E+00	-2.561E-01	1.671E+00	2.727E-01	2.251E+00	-5.813E-01	1.274E+02	-2.018E+01	4.274E+02	8.694E+02
35.75	6.321E+00	6.613E+02	7.858E+00	2.474E+00	-2.411E-01	1.712E+00	2.651E-01	2.237E+00	-5.899E-01	1.276E+02	-1.351E+01	4.272E+02	8.703E+02
35.80	6.285E+00	6.622E+02	7.858E+00	2.462E+00	-2.246E-01	1.761E+00	2.555E-01	2.232E+00	-5.993E-01	1.287E+02	-6.836E+00	4.271E+02	8.609E+02
35.85	6.205E+00	6.630E+02	7.859E+00	2.434E+00	-2.060E-01	1.810E+00	2.447E-01	2.237E+00	-6.091E-01	1.302E+02	4.929E-01	4.273E+02	8.526E+02
35.90	6.258E+00	6.637E+02	7.861E+00	2.396E+00	-1.850E-01	1.846E+00	2.337E-01	2.252E+00	-6.192E-01	1.310E+02	7.989E+00	4.271E+02	8.526E+02
35.95	6.255E+00	6.643E+02	7.861E+00	2.358E+00	-1.626E-01	1.864E+00	2.224E-01	2.273E+00	-6.297E-01	1.302E+02	1.477E+01	4.267E+02	8.569E+02
36.00	6.343E+00	6.649E+02	7.862E+00	2.326E+00	-1.400E-01	1.861E+00	2.108E-01	2.290E+00	-6.399E-01	1.273E+02	2.198E+01	4.256E+02	8.631E+02
36.05	6.411E+00	6.656E+02	7.862E+00	2.301E+00	-1.178E-01	1.842E+00	1.987E-01	2.296E+00	-6.489E-01	1.232E+02	2.955E+01	4.235E+02	8.670E+02
36.10	6.428E+00	6.662E+02	7.863E+00	2.281E+00	-9.587E-02	1.816E+00	1.855E-01	2.289E+00	-6.555E-01	1.191E+02	3.685E+01	4.214E+02	8.695E+02
36.15	6.346E+00	6.670E+02	7.865E+00	2.262E+00	-7.369E-02	1.795E+00	1.712E-01	2.271E+00	-6.589E-01	1.160E+02	4.363E+01	4.189E+02	8.758E+02
36.20	6.322E+00	6.677E+02	7.866E+00	2.239E+00	-5.170E-02	1.788E+00	1.547E-01	2.250E+00	-6.599E-01	1.146E+02	5.062E+01	4.168E+02	8.788E+02
36.25	6.398E+00	6.686E+02	7.866E+00	2.214E+00	-3.025E-02	1.796E+00	1.361E-01	2.234E+00	-6.597E-01	1.147E+02	5.780E+01	4.150E+02	8.761E+02
36.30	6.418E+00	6.694E+02	7.867E+00	2.187E+00	-9.434E-03	1.814E+00	1.160E-01	2.227E+00	-6.590E-01	1.173E+02	6.469E+01	4.130E+02	8.711E+02
36.35	6.389E+00	6.702E+02	7.868E+00	2.164E+00	1.043E-02	1.835E+00	9.558E-02	2.230E+00	-6.583E-01	1.208E+02	7.122E+01	4.108E+02	8.663E+02
36.40	6.430E+00	6.709E+02	7.869E+00	2.153E+00	2.859E-02	1.850E+00	7.601E-02	2.239E+00	-6.578E-01	1.238E+02	7.742E+01	4.080E+02	8.635E+02
36.45	6.381E+00	6.715E+02	7.869E+00	2.159E+00	4.401E-02	1.857E+00	5.772E-02	2.249E+00	-6.572E-01	1.262E+02	8.306E+01	4.049E+02	8.624E+02
36.50	6.201E+00	6.721E+02	7.871E+00	2.187E+00	5.609E-02	1.859E+00	4.092E-02	2.253E+00	-6.558E-01	1.264E+02	8.871E+01	4.010E+02	8.661E+02
36.55	6.165E+00	6.727E+02	7.872E+00	2.234E+00	6.524E-02	1.863E+00	2.520E-02	2.249E+00	-6.531E-01	1.245E+02	9.416E+01	3.967E+02	8.758E+02
36.60	6.214E+00	6.734E+02	7.874E+00	2.288E+00	7.286E-02	1.878E+00	9.672E-03	2.237E+00	-6.487E-01	1.217E+02	9.921E+01	3.924E+02	8.892E+02
36.65	6.246E+00	6.742E+02	7.875E+00	2.337E+00	8.029E-02	1.912E+00	-6.995E-03	2.221E+00	-6.432E-01	1.197E+02	1.040E+02	3.880E+02	8.985E+02
36.70	6.188E+00	6.752E+02	7.876E+00	2.371E+00	8.840E-02	1.963E+00	-2.568E-02	2.207E+00	-6.378E-01	1.190E+02	1.091E+02	3.832E+02	8.981E+02
36.75	6.148E+00	6.763E+02	7.878E+00	2.389E+00	9.800E-02	2.025E+00	-4.634E-02	2.198E+00	-6.328E-01	1.213E+02	1.141E+02	3.784E+02	8.901E+02
36.80	6.440E+00	6.773E+02	7.880E+00	2.393E+00	1.097E-01	2.088E+00	-6.803E-02	2.197E+00	-6.283E-01	1.237E+02	1.191E+02	3.740E+02	8.826E+02
36.85	6.619E+00	6.783E+02	7.883E+00	2.390E+00	1.234E-01	2.140E+00	-8.963E-02	2.201E+00	-6.239E-01	1.255E+02	1.243E+02	3.689E+02	8.824E+02
36.90	6.642E+00	6.792E+02	7.884E+00	2.386E+00	1.383E-01	2.176E+00	-1.110E-01	2.210E+00	-6.195E-01	1.265E+02	1.288E+02	3.634E+02	8.849E+02
36.95	6.751E+00	6.802E+02	7.884E+00	2.382E+00	1.534E-01	2.194E+00	-1.327E-01	2.221E+00	-6.151E-01	1.260E+02	1.334E+02	3.587E+02	8.841E+02
37.00	6.903E+00	6.812E+02	7.887E+00	2.380E+00	1.683E-01	2.198E+00	-1.544E-01	2.231E+00	-6.103E-01	1.223E+02	1.385E+02	3.523E+02	8.863E+02
37.05	6.895E+00	6.821E+02	7.889E+00	2.373E+00	1.833E-01	2.195E+00	-1.763E-01	2.241E+00	-6.044E-01	1.180E+02	1.431E+02	3.454E+02	8.943E+02
37.10	6.826E+00	6.832E+02	7.891E+00	2.356E+00	1.982E-01	2.192E+00	-1.987E-01	2.251E+00	-5.967E-01	1.149E+02	1.468E+02	3.402E+02	9.039E+02
37.15	6.723E+00	6.844E+02	7.893E+00	2.330E+00	2.125E-01	2.192E+00	-2.216E-01	2.264E+00	-5.881E-01	1.119E+02	1.508E+02	3.344E+02	9.114E+02
37.20	6.630E+00	6.857E+02	7.895E+00	2.293E+00	2.256E-01	2.193E+00	-2.442E-01	2.279E+00	-5.789E-01	1.094E+02	1.548E+02	3.273E+02	9.126E+02
37.25	6.445E+00	6.871E+02	7.897E+00	2.248E+00	2.377E-01	2.190E+00	-2.658E-01	2.297E+00	-5.687E-01	1.096E+02	1.581E+02	3.220E+02	9.089E+02
37.30	6.204E+00	6.886E+02	7.901E+00	2.199E+00	2.487E-01	2.177E+00	-2.851E-01	2.315E+00	-5.572E-01	1.115E+02	1.603E+02	3.165E+02	9.070E+02
37.35	6.279E+00	6.900E+02	7.903E+00	2.151E+00	2.584E-01	2.151E+00	-3.017E-01	2.331E+00	-5.447E-01	1.125E+02	1.621E+02	3.098E+02	9.081E+02
37.40	6.426E+00	6.915E+02	7.905E+00	2.107E+00	2.665E-01	2.114E+00	-3.161E-01	2.344E+00	-5.314E-01	1.122E+02	1.632E+02	3.030E+02	9.076E+02
37.45	6.503E+00	6.929E+02	7.905E+00	2.066E+00	2.727E-01	2.073E+00	-3.296E-01	2.350E+00	-5.175E-01	1.111E+02	1.641E+02	2.968E+02	9.008E+02
37.50	6.671E+00	6.942E+02	7.906E+00	2.025E+00	2.774E-01	2.034E+00	-3.426E-01	2.350E+00	-5.033E-01	1.081E+02	1.650E+02	2.894E+02	8.933E+02
37.55	6.740E+00	6.954E+02	7.907E+00	1.982E+00	2.816E-01	2.004E+00	-3.559E-01	2.345E+00	-4.886E-01	1.051E+02	1.658E+02	2.824E+02	8.882E+02
37.60	6.740E+00	6.965E+02	7.908E+00	1.931E+00	2.860E-01	1.989E+00	-3.703E-01	2.341E+00	-4.737E-01	1.013E+02	1.664E+02	2.757E+02	8.889E+02
37.65	6.571E+00	6.975E+02	7.909E+00	1.872E+00	2.912E-01	1.993E+00	-3.863E-01	2.339E+00	-4.592E-01	9.865E+01	1.668E+02	2.683E+02	8.943E+02
37.70	6.443E+00	6.985E+02	7.909E+00	1.808E+00	2.968E-01	2.015E+00	-4.046E-01	2.343E+00	-4.454E-01	9.727E+01	1.668E+02	2.612E+02	9.009E+02
37.75	6.470E+00	6.995E+02	7.911E+00	1.744E+00	3.028E-01	2.051E+00	-4.249E-01	2.352E+00	-4.318E-01	9.669E+01	1.669E+02	2.547E+02	9.085E+02
37.80	6.623E+00	7.005E+02	7.913E+00	1.688E+00	3.088E-01	2.097E+00	-4.460E-01	2.362E+00	-4.175E-01	9.474E+01	1.667E+02	2.477E+02	9.199E+02
37.85	6.722E+00	7.017E+02	7.914E+00	1.645E+00	3.141E-01	2.146E+00	-4.670E-01	2.369E+00	-4.016E-01	9.182E+01	1.661E+02	2.404E+02	9.275E+02
37.90	6.496E+00	7.029E+02	7.914E+00	1.617E+00	3.174E-01	2.195E+00	-4.880E-01	2.370E+00	-3.843E-01	8.889E+01	1.660E+02	2.339E+02	9.234E+02
37.95	6.185E+00	7.041E+02	7.915E+00	1.605E+00	3.187E-01	2.242E+00	-5.082E-01	2.370E+00	-3.658E-01	8.678E+01	1.653E+02	2.270E+02	9.124E+02
38.00	6.115E+00	7.052E+02	7.916E+00	1.602E+00	3.182E-01	2.285E+00	-5.272E-01	2.373E+00	-3.464E-01	8.387E+01	1.640E+02	2.197E+02	9.009E+02
38.05	6.227E+00	7.062E+02	7.915E+00	1.604E+00	3.160E-01	2.324E+00	-5.455E-01	2.385E+00	-3.268E-01	8.410E+01	1.619E+02	2.130E+02	8.900E+02
38.10	6.280E+00	7.069E+02	7.915E+00	1.606E+00	3.120E-01	2.358E+00	-5.631E-01	2.407E+00	-3.079E-01	8.472E+01	1.598E+02	2.068E+02	8.838E+02
38.15	6.268E+00	7.074E+02	7.914E+00	1.609E+00	3.061E-01	2.387E+00	-5.800E-01	2.432E+00	-2.896E-01	8.657E+01	1.569E+02	2.000E+02	8.833E+02
38.20	6.210E+00	7.077E+02	7.914E+00	1.615E+00	2.978E-01	2.409E+00	-5.957E-01	2.450E+00	-2.711E-01	8.924E+01	1.538E+02	1.938E+02	8.885E+02
38.25	6.089E+00	7.080E+02	7.914E+00	1.629E+00	2.873E-01	2.423E+00	-6.095E-01	2.450E+00	-2.512E-01	9.267E+01	1.502E+02	1.881E+02	9.005E+02
38.30	6.293E+00	7.084E+02	7.915E+00	1.651E+00	2.748E-01	2.428E+00	-6.209E-01	2.428E+00	-2.297E-01	9.267E+01	1.465E+02	1.815E+02	9.175E+02
38.35	6.338E+00	7.089E+02	7.915E+00	1.681E+00	2.606E-01	2.427E+00	-6.303E-01	2.387E+00	-2.073E-01	9.142E+01	1.428E+02	1.747E+02	9.310E+02
38.40	6.392E+00	7.096E+02	7.917E+00	1.712E+00	2.455E-01	2.421E+00	-6.381E-01	2.340E+00	-1.845E-01	9.040E+01	1.390E+02	1.685E+02	9.380E+02
38.45	6.375E+00	7.104E+02	7.919E+00	1.739E+00	2.306E-01	2.412E+00	-6.443E-01	2.301E+00	-1.622E-01	8.964E+01	1.348E+02	1.627E+02	9.406E+02
38.50	6.454E+00	7.114E+02	7.920E+00	1.756E+00	2.166E-01	2.399E+00	-6.490E-01	2.278E+00	-1.412E-01	8.949E+01	1.298E+02	1.567E+02	9.373E+02
38.55	6.555E+00	7.124E+02	7.922E+00	1.760E+00	2.036E-01	2.380E+00	-6.525E-01	2.270E+00	-1.216E-01	9.037E+01	1.250E+02	1.515E+02	9.283E+02
38.60	6.469E+00	7.133E+02	7.923E+00	1.754E+00	1.911E-01	2.359E+00	-6.550E-01	2.269E+00	-1.029E-01	9.487E+01	1.190E+02	1.467E+02	9.169E+02
38.65	6.343E+00	7.141E+02	7.923E+00	1.742E+00	1.788E-01	2.335E+00	-6.564E-01	2.263E+00	-8.391E-02	9.592E+01	1.141E+02	1.422E+02	9.079E+02
38.70	6.365E+00	7.147E+02	7.923E+00	1.732E+00	1.656E-01	2.315E+00	-6.579E-01	2.243E+00	-6.449E-02	9.709E+01	1.079E+02	1.369E+02	9.011E+02
38.75	6.417E+00	7.152E+02	7.924E+00	1.727E+00	1.507E-01	2.303E+00	-6.600E-01	2.210E+00	-4.459E-02	9.800E+01	1.030E+02	1.326E+02	8.996E+02
38.80	6.306E+00	7.157E+02	7.925E+00	1.732E+00	1.345E-01	2.299E+00	-6.628E-01	2.169E+00	-2.437E-02	9.622E+01	9.708E+01	1.276E+02	9.090E+02
38.85	6.299E+00	7.161E+02	7.926E+00	1.748E+00	1.169E-01	2.304E+00	-6.666E-01	2.133E+00	-4.935E-03	9.387E+01	9.163E+01	1.233E+02	9.239E+02
38.90	6.362E+00	7.167E+02	7.928E+00	1.772E+00	9.836E-02	2.316E+00	-6.709E-01	2.116E+00	1.256E-02	9.176E+01	8.634E+01	1.194E+02	9.413E+02
38.95	6.318E+00	7.175E+02	7.931E+00	1.800E+00	7.980E-02	2.329E+00	-6.748E-01	2.127E+00	2.775E-02	9.055E+01	7.997E+01	1.154E+02	9.593E+02
39.00	6.381E+00	7.186E+02	7.934E+00	1.830E+00	6.164E-02	2.342E+00	-6.769E-01	2.164E+00	4.089E-02	9.152E+01	7.369E+01	1.124E+02	9.726E+02
39.05	6.441E+00	7.200E+02	7.937E+00	1.859E+00	4.379E-02	2.352E+00	-6.768E-01	2.223E+00	5.225E-02	9.404E+01	6.767E+01	1.100E+02	9.765E+02
39.10	6.445E+00	7.217E+02	7.941E+00	1.887E+00	2.591E-02	2.359E+00	-6.748E-01	2.291E+00	6.234E-02	9.793E+01	6.091E+01	1.073E+02	9.705E+02
39.15	6.510E+00	7.234E+02	7.944E+00	1.917E+00	7.587E-03	2.366E+00	-6.707E-01	2.355E+00	7.243E-02	1.015E+02	5.397E+01	1.047E+02	9.595E+02
39.20	6.543E+00	7.251E+02	7.948E+00	1.951E+00	-1.173E-02	2.375E+00	-6.647E-01	2.403E+00	8.365E-02	1.045E+02	4.726E+01	1.026E+02	9.488E+02
39.25	6.548E+00	7.267E+02	7.950E+00	1.990E+00	-3.254E-02	2.382E+00	-6.571E-01	2.432E+00	9.590E-02	1.057E+02	4.080E+01	1.008E+02	9.407E+02
39.30	6.635E+00	7.283E+02	7.953E+00	2.035E+00	-5.489E-02	2.386E+00	-6.488E-01	2.447E+00	1.084E-01	1.040E+02	3.312E+01	9.856E+01	9.372E+02
39.35	6.780E+00	7.297E+02	7.954E+00	2.079E+00	-7.876E-02	2.384E+00	-6.401E-01	2.454E+00	1.206E-01	1.021E+02	2.582E+01	9.688E+01	9.373E+02
39.40	6.928E+00	7.311E+02	7.956E+00	2.119E+00	-1.035E-01	2.378E+00	-6.315E-01	2.460E+00	1.319E-01	9.913E+01	1.955E+01	9.569E+01	9.426E+02
39.45	6.876E+00	7.326E+02	7.961E+00	2.150E+00	-1.279E-01	2.369E+00	-6.237E-01	2.468E+00	1.425E-01	9.672E+01	1.223E+01	9.466E+01	9.575E+02
39.50	6.760E+00	7.342E+02	7.963E+00	2.170E+00	-1.513E-01	2.364E+00	-6.171E-01	2.475E+00	1.530E-01	9.494E+01	4.306E+00	9.420E+01	9.757E+02
39.55	6.837E+00	7.361E+02	7.967E+00	2.181E+00	-1.739E-01	2.366E+00	-6.119E-01	2.476E+00	1.639E-01	9.568E+01	-2.149E+00	9.429E+01	9.887E+02
39.60	6.852E+00	7.382E+02	7.972E+00	2.187E+00	-1.951E-01	2.375E+00	-6.075E-01	2.465E+00	1.763E-01	9.612E+01	-9.344E+00	9.469E+01	9.995E+02
39.65	6.799E+00	7.405E+02	7.977E+00	2.194E+00	-2.151E-01	2.388E+00	-6.030E-01	2.436E+00	1.904E-01	9.645E+01	-1.731E+01	9.538E+01	1.006E+03
39.70	6.869E+00	7.431E+02	7.980E+00	2.203E+00	-2.343E-01	2.401E+00	-5.974E-01	2.389E+00	2.059E-01	9.596E+01	-2.387E+01	9.603E+01	1.002E+03
39.75	6.765E+00	7.457E+02	7.985E+00	2.215E+00	-2.528E-01	2.410E+00	-5.901E-01	2.326E+00	2.222E-01	9.588E+01	-3.059E+01	9.669E+01	9.913E+02
39.80	6.429E+00	7.483E+02	7.988E+00	2.226E+00	-2.704E-01	2.411E+00	-5.808E-01	2.250E+00	2.389E-01	9.518E+01	-3.817E+01	9.784E+01	9.803E+02
39.85	6.172E+00	7.507E+02	7.991E+00	2.234E+00	-2.876E-01	2.408E+00	-5.695E-01	2.169E+00	2.550E-01	9.496E+01	-4.513E+01	9.917E+01	9.680E+02
39.90	6.120E+00	7.530E+02	7.992E+00	2.235E+00	-3.047E-01	2.405E+00	-5.573E-01	2.088E+00	2.693E-01	9.417E+01	-5.130E+01	1.007E+02	9.566E+02
39.95	6.062E+00	7.550E+02	7.993E+00	2.230E+00	-3.220E-01	2.404E+00	-5.449E-01	2.017E+00	2.809E-01	9.543E+01	-5.877E+01	1.033E+02	9.497E+02
40.00	6.005E+00	7.568E+02	7.994E+00	2.219E+00	-3.397E-01	2.405E+00	-5.318E-01	1.958E+00	2.898E-01	9.644E+01	-6.584E+01	1.062E+02	9.505E+02
40.05	5.997E+00	7.584E+02	7.996E+00	2.206E+00	-3.577E-01	2.407E+00	-5.174E-01	1.909E+00	2.962E-01	9.688E+01	-7.217E+01	1.088E+02	9.617E+02
40.10	5.947E+00	7.601E+02	7.997E+00	2.195E+00	-3.762E-01	2.406E+00	-5.018E-01	1.870E+00	3.006E-01	9.655E+01	-7.935E+01	1.120E+02	9.776E+02
40.15	6.000E+00	7.618E+02	7.997E+00	2.190E+00	-3.961E-01	2.400E+00	-4.852E-01	1.834E+00	3.032E-01	9.781E+01	-8.687E+01	1.156E+02	9.881E+02
40.20	6.008E+00	7.635E+02	7.999E+00	2.191E+00	-4.170E-01	2.388E+00	-4.671E-01	1.797E+00	3.051E-01	9.812E+01	-9.329E+01	1.188E+02	9.936E+02
40.25	6.088E+00	7.653E+02	8.002E+00	2.198E+00	-4.377E-01	2.376E+00	-4.475E-01	1.758E+00	3.076E-01	9.656E+01	-9.963E+01	1.224E+02	9.995E+02
40.30	6.087E+00	7.672E+02	8.004E+00	2.206E+00	-4.576E-01	2.370E+00	-4.277E-01	1.719E+00	3.107E-01	9.859E+01	-1.072E+02	1.267E+02	1.003E+03
40.35	6.002E+00	7.691E+02	8.006E+00	2.216E+00	-4.765E-01	2.377E+00	-4.084E-01	1.684E+00	3.138E-01	9.851E+01	-1.133E+02	1.307E+02	1.001E+03
40.40	5.924E+00	7.710E+02	8.007E+00	2.228E+00	-4.945E-01	2.401E+00	-3.907E-01	1.660E+00	3.158E-01	9.975E+01	-1.193E+02	1.347E+02	9.929E+02
40.45	5.985E+00	7.727E+02	8.009E+00	2.242E+00	-5.113E-01	2.439E+00	-3.749E-01	1.654E+00	3.160E-01	1.015E+02	-1.254E+02	1.398E+02	9.846E+02
40.50	6.269E+00	7.743E+02	8.010E+00	2.262E+00	-5.270E-01	2.486E+00	-3.604E-01	1.669E+00	3.137E-01	1.024E+02	-1.309E+02	1.446E+02	9.787E+02
40.55	6.364E+00	7.758E+02	8.009E+00	2.284E+00	-5.420E-01	2.533E+00	-3.470E-01	1.703E+00	3.083E-01	1.032E+02	-1.359E+02	1.497E+02	9.734E+02
40.60	6.388E+00	7.770E+02	8.009E+00	2.309E+00	-5.565E-01	2.575E+00	-3.341E-01	1.752E+00	2.999E-01	1.043E+02	-1.409E+02	1.554E+02	9.698E+02
40.65	6.394E+00	7.780E+02	8.010E+00	2.333E+00	-5.701E-01	2.609E+00	-3.206E-01	1.805E+00	2.892E-01	1.061E+02	-1.454E+02	1.610E+02	9.728E+02
40.70	6.324E+00	7.790E+02	8.012E+00	2.356E+00	-5.826E-01	2.632E+00	-3.051E-01	1.856E+00	2.776E-01	1.069E+02	-1.500E+02	1.664E+02	9.862E+02
40.75	6.339E+00	7.800E+02	8.011E+00	2.379E+00	-5.945E-01	2.640E+00	-2.875E-01	1.900E+00	2.651E-01	1.079E+02	-1.543E+02	1.726E+02	9.999E+02
40.80	6.173E+00	7.811E+02	8.011E+00	2.400E+00	-6.064E-01	2.633E+00	-2.679E-01	1.937E+00	2.512E-01	1.099E+02	-1.583E+02	1.789E+02	1.006E+03
40.85	5.962E+00	7.822E+02	8.013E+00	2.420E+00	-6.180E-01	2.609E+00	-2.458E-01	1.967E+00	2.365E-01	1.112E+02	-1.619E+02	1.851E+02	1.008E+03
40.90	5.934E+00	7.834E+02	8.015E+00	2.437E+00	-6.284E-01	2.572E+00	-2.212E-01	1.990E+00	2.218E-01	1.109E+02	-1.651E+02	1.917E+02	1.010E+03
40.95	5.868E+00	7.846E+02	8.016E+00	2.448E+00	-6.372E-01	2.530E+00	-1.950E-01	2.006E+00	2.072E-01	1.109E+02	-1.687E+02	1.981E+02	1.012E+03
41.00	5.874E+00	7.859E+02	8.017E+00	2.451E+00	-6.448E-01	2.486E+00	-1.685E-01	2.016E+00	1.927E-01	1.106E+02	-1.720E+02	2.048E+02	1.008E+03
41.05	5.912E+00	7.870E+02	8.017E+00	2.446E+00	-6.516E-01	2.444E+00	-1.426E-01	2.019E+00	1.778E-01	1.105E+02	-1.747E+02	2.114E+02	9.977E+02
41.10	5.886E+00	7.880E+02	8.017E+00	2.433E+00	-6.575E-01	2.399E+00	-1.172E-01	2.015E+00	1.630E-01	1.107E+02	-1.769E+02	2.186E+02	9.873E+02
41.15	5.991E+00	7.888E+02	8.018E+00	2.414E+00	-6.623E-01	2.348E+00	-9.210E-02	2.007E+00	1.483E-01	1.125E+02	-1.790E+02	2.259E+02	9.837E+02
41.20	6.157E+00	7.895E+02	8.018E+00	2.393E+00	-6.662E-01	2.291E+00	-6.759E-02	1.995E+00	1.338E-01	1.131E+02	-1.805E+02	2.335E+02	9.867E+02
41.25	6.172E+00	7.901E+02	8.018E+00	2.376E+00	-6.698E-01	2.232E+00	-4.455E-02	1.981E+00	1.188E-01	1.144E+02	-1.819E+02	2.406E+02	9.928E+02
41.30	6.299E+00	7.907E+02	8.019E+00	2.367E+00	-6.735E-01	2.178E+00	-2.368E-02	1.968E+00	1.036E-01	1.150E+02	-1.828E+02	2.481E+02	1.002E+03
41.35	6.402E+00	7.913E+02	8.021E+00	2.370E+00	-6.771E-01	2.136E+00	-5.360E-03	1.958E+00	8.831E-02	1.157E+02	-1.837E+02	2.553E+02	1.015E+03
41.40	6.304E+00	7.922E+02	8.025E+00	2.384E+00	-6.802E-01	2.116E+00	1.052E-02	1.952E+00	7.362E-02	1.169E+02	-1.846E+02	2.629E+02	1.035E+03
41.45	6.434E+00	7.933E+02	8.028E+00	2.407E+00	-6.822E-01	2.121E+00	2.419E-02	1.952E+00	5.953E-02	1.175E+02	-1.852E+02	2.702E+02	1.053E+03
41.50	6.429E+00	7.948E+02	8.031E+00	2.433E+00	-6.830E-01	2.152E+00	3.576E-02	1.957E+00	4.558E-02	1.188E+02	-1.852E+02	2.772E+02	1.062E+03
41.55	6.546E+00	7.965E+02	8.033E+00	2.458E+00	-6.823E-01	2.202E+00	4.560E-02	1.968E+00	3.144E-02	1.203E+02	-1.844E+02	2.847E+02	1.058E+03
41.60	6.554E+00	7.983E+02	8.036E+00	2.480E+00	-6.798E-01	2.268E+00	5.423E-02	1.983E+00	1.681E-02	1.208E+02	-1.828E+02	2.921E+02	1.043E+03
41.65	6.540E+00	8.000E+02	8.038E+00	2.497E+00	-6.758E-01	2.341E+00	6.223E-02	1.998E+00	1.479E-03	1.229E+02	-1.820E+02	2.988E+02	1.024E+03
41.70	6.531E+00	8.016E+02	8.040E+00	2.511E+00	-6.708E-01	2.416E+00	7.023E-02	2.010E+00	-1.456E-02	1.258E+02	-1.807E+02	3.064E+02	1.009E+03
41.75	6.677E+00	8.029E+02	8.041E+00	2.521E+00	-6.653E-01	2.487E+00	7.849E-02	2.019E+00	-3.193E-02	1.268E+02	-1.791E+02	3.139E+02	9.999E+02
41.80	6.751E+00	8.040E+02	8.041E+00	2.529E+00	-6.602E-01	2.552E+00	8.707E-02	2.023E+00	-5.128E-02	1.269E+02	-1.773E+02	3.203E+02	9.960E+02
41.85	6.839E+00	8.049E+02	8.042E+00	2.537E+00	-6.558E-01	2.606E+00	9.618E-02	2.024E+00	-7.233E-02	1.277E+02	-1.751E+02	3.274E+02	1.002E+03
41.90	7.087E+00	8.057E+02	8.043E+00	2.543E+00	-6.517E-01	2.650E+00	1.060E-01	2.023E+00	-9.473E-02	1.273E+02	-1.721E+02	3.346E+02	1.017E+03
41.95	7.020E+00	8.067E+02	8.045E+00	2.547E+00	-6.473E-01	2.679E+00	1.167E-01	2.020E+00	-1.178E-01	1.257E+02	-1.693E+02	3.404E+02	1.038E+03
42.00	6.886E+00	8.079E+02	8.048E+00	2.546E+00	-6.419E-01	2.693E+00	1.282E-01	2.012E+00	-1.405E-01	1.258E+02	-1.668E+02	3.469E+02	1.060E+03
42.05	6.872E+00	8.094E+02	8.051E+00	2.542E+00	-6.354E-01	2.693E+00	1.405E-01	2.000E+00	-1.620E-01	1.253E+02	-1.637E+02	3.537E+02	1.074E+03
42.10	6.930E+00	8.112E+02	8.054E+00	2.532E+00	-6.271E-01	2.679E+00	1.538E-01	1.984E+00	-1.821E-01	1.259E+02	-1.608E+02	3.598E+02	1.078E+03
42.15	7.001E+00	8.132E+02	8.057E+00	2.517E+00	-6.170E-01	2.652E+00	1.677E-01	1.969E+00	-2.009E-01	1.262E+02	-1.571E+02	3.659E+02	1.070E+03
42.20	6.974E+00	8.151E+02	8.059E+00	2.495E+00	-6.051E-01	2.614E+00	1.818E-01	1.962E+00	-2.191E-01	1.283E+02	-1.527E+02	3.721E+02	1.054E+03
42.25	7.015E+00	8.170E+02	8.061E+00	2.468E+00	-5.913E-01	2.564E+00	1.957E-01	1.968E+00	-2.373E-01	1.324E+02	-1.492E+02	3.774E+02	1.037E+03
42.30	7.122E+00	8.186E+02	8.063E+00	2.437E+00	-5.762E-01	2.505E+00	2.086E-01	1.989E+00	-2.564E-01	1.336E+02	-1.443E+02	3.833E+02	1.023E+03
42.35	7.197E+00	8.200E+02	8.063E+00	2.408E+00	-5.604E-01	2.438E+00	2.202E-01	2.026E+00	-2.770E-01	1.339E+02	-1.398E+02	3.886E+02	1.013E+03
42.40	7.340E+00	8.211E+02	8.063E+00	2.383E+00	-5.448E-01	2.364E+00	2.305E-01	2.072E+00	-2.992E-01	1.333E+02	-1.351E+02	3.939E+02	1.011E+03
42.45	7.250E+00	8.220E+02	8.063E+00	2.365E+00	-5.295E-01	2.284E+00	2.402E-01	2.121E+00	-3.221E-01	1.312E+02	-1.300E+02	3.992E+02	1.018E+03
42.50	7.304E+00	8.228E+02	8.064E+00	2.355E+00	-5.144E-01	2.204E+00	2.495E-01	2.167E+00	-3.456E-01	1.284E+02	-1.246E+02	4.038E+02	1.033E+03
42.55	7.360E+00	8.237E+02	8.064E+00	2.353E+00	-5.002E-01	2.129E+00	2.579E-01	2.214E+00	-3.697E-01	1.252E+02	-1.185E+02	4.078E+02	1.047E+03
42.60	7.328E+00	8.247E+02	8.065E+00	2.360E+00	-4.869E-01	2.064E+00	2.653E-01	2.264E+00	-3.943E-01	1.227E+02	-1.120E+02	4.117E+02	1.059E+03
42.65	7.277E+00	8.259E+02	8.067E+00	2.377E+00	-4.739E-01	2.010E+00	2.721E-01	2.321E+00	-4.188E-01	1.203E+02	-1.057E+02	4.153E+02	1.069E+03
42.70	7.179E+00	8.272E+02	8.069E+00	2.398E+00	-4.608E-01	1.966E+00	2.784E-01	2.385E+00	-4.428E-01	1.210E+02	-9.954E+01	4.193E+02	1.074E+03
42.75	7.171E+00	8.286E+02	8.071E+00	2.421E+00	-4.471E-01	1.928E+00	2.846E-01	2.452E+00	-4.661E-01	1.246E+02	-9.342E+01	4.235E+02	1.071E+03
42.80	7.097E+00	8.301E+02	8.072E+00	2.443E+00	-4.322E-01	1.894E+00	2.908E-01	2.517E+00	-4.888E-01	1.294E+02	-8.729E+01	4.273E+02	1.063E+03
42.85	6.947E+00	8.314E+02	8.073E+00	2.465E+00	-4.163E-01	1.866E+00	2.965E-01	2.575E+00	-5.107E-01	1.348E+02	-8.099E+01	4.306E+02	1.050E+03
42.90	6.949E+00	8.326E+02	8.074E+00	2.491E+00	-4.000E-01	1.847E+00	3.007E-01	2.617E+00	-5.314E-01	1.390E+02	-7.399E+01	4.333E+02	1.039E+03
42.95	6.908E+00	8.336E+02	8.074E+00	2.526E+00	-3.840E-01	1.843E+00	3.024E-01	2.638E+00	-5.505E-01	1.426E+02	-6.746E+01	4.352E+02	1.031E+03
43.00	6.931E+00	8.343E+02	8.074E+00	2.568E+00	-3.688E-01	1.856E+00	3.010E-01	2.636E+00	-5.676E-01	1.414E+02	-6.005E+01	4.368E+02	1.030E+03
43.05	6.800E+00	8.349E+02	8.073E+00	2.615E+00	-3.545E-01	1.885E+00	2.962E-01	2.612E+00	-5.825E-01	1.399E+02	-5.275E+01	4.382E+02	1.034E+03
43.10	6.865E+00	8.355E+02	8.073E+00	2.660E+00	-3.405E-01	1.922E+00	2.886E-01	2.574E+00	-5.950E-01	1.365E+02	-4.499E+01	4.396E+02	1.041E+03
43.15	6.954E+00	8.360E+02	8.073E+00	2.693E+00	-3.261E-01	1.958E+00	2.790E-01	2.528E+00	-6.053E-01	1.345E+02	-3.760E+01	4.407E+02	1.050E+03
43.20	6.938E+00	8.366E+02	8.074E+00	2.711E+00	-3.103E-01	1.985E+00	2.685E-01	2.482E+00	-6.133E-01	1.340E+02	-3.019E+01	4.417E+02	1.061E+03
43.25	6.628E+00	8.372E+02	8.074E+00	2.712E+00	-2.930E-01	2.000E+00	2.574E-01	2.438E+00	-6.195E-01	1.355E+02	-2.317E+01	4.425E+02	1.069E+03
43.30	6.476E+00	8.380E+02	8.074E+00	2.701E+00	-2.743E-01	2.003E+00	2.456E-01	2.396E+00	-6.238E-01	1.368E+02	-1.604E+01	4.428E+02	1.070E+03
43.35	6.652E+00	8.388E+02	8.075E+00	2.680E+00	-2.545E-01	2.000E+00	2.330E-01	2.353E+00	-6.265E-01	1.392E+02	-9.005E+00	4.430E+02	1.064E+03
43.40	6.662E+00	8.396E+02	8.076E+00	2.655E+00	-2.337E-01	1.996E+00	2.196E-01	2.307E+00	-6.273E-01	1.398E+02	-1.406E+00	4.428E+02	1.057E+03
43.45	6.558E+00	8.402E+02	8.076E+00	2.629E+00	-2.121E-01	1.995E+00	2.056E-01	2.258E+00	-6.265E-01	1.391E+02	5.756E+00	4.424E+02	1.050E+03
43.50	6.548E+00	8.407E+02	8.076E+00	2.607E+00	-1.901E-01	1.998E+00	1.908E-01	2.211E+00	-6.251E-01	1.374E+02	1.265E+01	4.414E+02	1.044E+03
43.55	6.643E+00	8.411E+02	8.074E+00	2.586E+00	-1.685E-01	2.008E+00	1.747E-01	2.171E+00	-6.250E-01	1.322E+02	2.053E+01	4.399E+02	1.038E+03
43.60	6.778E+00	8.412E+02	8.073E+00	2.566E+00	-1.471E-01	2.024E+00	1.573E-01	2.145E+00	-6.268E-01	1.274E+02	2.803E+01	4.379E+02	1.034E+03
43.65	6.580E+00	8.412E+02	8.072E+00	2.544E+00	-1.254E-01	2.045E+00	1.390E-01	2.135E+00	-6.306E-01	1.209E+02	3.555E+01	4.359E+02	1.034E+03
43.70	6.433E+00	8.412E+02	8.072E+00	2.516E+00	-1.035E-01	2.068E+00	1.204E-01	2.141E+00	-6.364E-01	1.186E+02	4.324E+01	4.334E+02	1.040E+03
43.75	6.336E+00	8.411E+02	8.070E+00	2.482E+00	-8.112E-02	2.089E+00	1.022E-01	2.164E+00	-6.433E-01	1.181E+02	5.067E+01	4.309E+02	1.048E+03
43.80	6.407E+00	8.410E+02	8.070E+00	2.448E+00	-5.883E-02	2.103E+00	8.495E-02	2.201E+00	-6.509E-01	1.198E+02	5.752E+01	4.289E+02	1.055E+03
43.85	6.594E+00	8.410E+02	8.069E+00	2.420E+00	-3.766E-02	2.106E+00	6.924E-02	2.246E+00	-6.583E-01	1.246E+02	6.429E+01	4.264E+02	1.059E+03
43.90	6.436E+00	8.410E+02	8.070E+00	2.400E+00	-1.787E-02	2.099E+00	5.517E-02	2.292E+00	-6.647E-01	1.298E+02	7.064E+01	4.235E+02	1.062E+03
43.95	6.393E+00	8.411E+02	8.071E+00	2.394E+00	5.662E-04	2.086E+00	4.253E-02	2.332E+00	-6.692E-01	1.333E+02	7.661E+01	4.204E+02	1.066E+03
44.00	6.454E+00	8.413E+02	8.070E+00	2.400E+00	1.734E-02	2.072E+00	3.054E-02	2.364E+00	-6.718E-01	1.352E+02	8.247E+01	4.161E+02	1.066E+03
44.05	6.238E+00	8.415E+02	8.069E+00	2.415E+00	3.223E-02	2.063E+00	1.799E-02	2.386E+00	-6.727E-01	1.357E+02	8.831E+01	4.114E+02	1.058E+03
44.10	6.209E+00	8.416E+02	8.068E+00	2.434E+00	4.541E-02	2.058E+00	4.411E-03	2.401E+00	-6.719E-01	1.347E+02	9.427E+01	4.065E+02	1.045E+03
44.15	6.320E+00	8.416E+02	8.068E+00	2.454E+00	5.712E-02	2.055E+00	-1.025E-02	2.412E+00	-6.698E-01	1.331E+02	1.001E+02	4.015E+02	1.034E+03
44.20	6.430E+00	8.413E+02	8.067E+00	2.474E+00	6.771E-02	2.051E+00	-2.614E-02	2.424E+00	-6.667E-01	1.319E+02	1.057E+02	3.966E+02	1.030E+03
44.25	6.338E+00	8.409E+02	8.067E+00	2.488E+00	7.796E-02	2.045E+00	-4.342E-02	2.438E+00	-6.634E-01	1.319E+02	1.105E+02	3.919E+02	1.035E+03
44.30	6.309E+00	8.405E+02	8.067E+00	2.494E+00	8.884E-02	2.037E+00	-6.199E-02	2.455E+00	-6.602E-01	1.304E+02	1.157E+02	3.866E+02	1.049E+03
44.35	6.187E+00	8.402E+02	8.066E+00	2.488E+00	1.011E-01	2.028E+00	-8.202E-02	2.473E+00	-6.573E-01	1.305E+02	1.205E+02	3.803E+02	1.062E+03
44.40	6.134E+00	8.401E+02	8.067E+00	2.471E+00	1.151E-01	2.018E+00	-1.032E-01	2.488E+00	-6.537E-01	1.309E+02	1.250E+02	3.749E+02	1.070E+03
44.45	6.276E+00	8.402E+02	8.068E+00	2.446E+00	1.310E-01	2.007E+00	-1.244E-01	2.498E+00	-6.487E-01	1.311E+02	1.298E+02	3.685E+02	1.076E+03
44.50	6.301E+00	8.404E+02	8.069E+00	2.421E+00	1.478E-01	1.993E+00	-1.449E-01	2.504E+00	-6.421E-01	1.295E+02	1.345E+02	3.621E+02	1.079E+03
44.55	6.375E+00	8.407E+02	8.070E+00	2.399E+00	1.643E-01	1.979E+00	-1.651E-01	2.508E+00	-6.342E-01	1.276E+02	1.392E+02	3.564E+02	1.075E+03
44.60	6.277E+00	8.411E+02	8.071E+00	2.386E+00	1.793E-01	1.966E+00	-1.850E-01	2.509E+00	-6.253E-01	1.247E+02	1.438E+02	3.500E+02	1.065E+03
44.65	6.145E+00	8.414E+02	8.071E+00	2.383E+00	1.921E-01	1.962E+00	-2.051E-01	2.508E+00	-6.156E-01	1.217E+02	1.478E+02	3.435E+02	1.054E+03
44.70	6.163E+00	8.416E+02	8.071E+00	2.389E+00	2.025E-01	1.968E+00	-2.258E-01	2.507E+00	-6.052E-01	1.173E+02	1.516E+02	3.368E+02	1.044E+03
44.75	6.077E+00	8.416E+02	8.071E+00	2.397E+00	2.106E-01	1.985E+00	-2.466E-01	2.507E+00	-5.939E-01	1.157E+02	1.543E+02	3.295E+02	1.039E+03
44.80	5.998E+00	8.416E+02	8.071E+00	2.403E+00	2.168E-01	2.007E+00	-2.674E-01	2.509E+00	-5.818E-01	1.168E+02	1.564E+02	3.231E+02	1.042E+03
44.85	5.980E+00	8.415E+02	8.072E+00	2.405E+00	2.216E-01	2.029E+00	-2.875E-01	2.511E+00	-5.686E-01	1.195E+02	1.582E+02	3.171E+02	1.052E+03
44.90	6.074E+00	8.415E+02	8.072E+00	2.400E+00	2.254E-01	2.043E+00	-3.067E-01	2.509E+00	-5.546E-01	1.225E+02	1.599E+02	3.101E+02	1.064E+03
44.95	6.219E+00	8.416E+02	8.072E+00	2.391E+00	2.287E-01	2.049E+00	-3.252E-01	2.500E+00	-5.396E-01	1.257E+02	1.611E+02	3.033E+02	1.074E+03
45.00	6.261E+00	8.419E+02	8.073E+00	2.379E+00	2.322E-01	2.051E+00	-3.437E-01	2.488E+00	-5.235E-01	1.275E+02	1.620E+02	2.967E+02	1.078E+03
45.05	6.195E+00	8.424E+02	8.074E+00	2.364E+00	2.362E-01	2.058E+00	-3.626E-01	2.476E+00	-5.067E-01	1.254E+02	1.629E+02	2.893E+02	1.077E+03
45.10	6.100E+00	8.428E+02	8.075E+00	2.346E+00	2.408E-01	2.079E+00	-3.829E-01	2.468E+00	-4.896E-01	1.232E+02	1.630E+02	2.815E+02	1.069E+03
45.15	6.055E+00	8.433E+02	8.076E+00	2.321E+00	2.461E-01	2.123E+00	-4.051E-01	2.466E+00	-4.723E-01	1.191E+02	1.634E+02	2.746E+02	1.061E+03
45.20	5.997E+00	8.436E+02	8.076E+00	2.287E+00	2.519E-01	2.191E+00	-4.294E-01	2.468E+00	-4.547E-01	1.124E+02	1.644E+02	2.673E+02	1.056E+03
45.25	6.072E+00	8.439E+02	8.076E+00	2.241E+00	2.576E-01	2.282E+00	-4.563E-01	2.468E+00	-4.367E-01	1.072E+02	1.650E+02	2.596E+02	1.051E+03
45.30	6.034E+00	8.441E+02	8.076E+00	2.184E+00	2.631E-01	2.384E+00	-4.851E-01	2.462E+00	-4.176E-01	1.049E+02	1.654E+02	2.533E+02	1.049E+03
45.35	6.078E+00	8.443E+02	8.077E+00	2.119E+00	2.687E-01	2.482E+00	-5.136E-01	2.450E+00	-3.970E-01	1.045E+02	1.647E+02	2.468E+02	1.055E+03
45.40	6.153E+00	8.444E+02	8.077E+00	2.049E+00	2.740E-01	2.563E+00	-5.403E-01	2.439E+00	-3.759E-01	1.034E+02	1.635E+02	2.398E+02	1.064E+03
45.45	6.304E+00	8.447E+02	8.077E+00	1.981E+00	2.778E-01	2.617E+00	-5.643E-01	2.433E+00	-3.554E-01	1.026E+02	1.624E+02	2.331E+02	1.067E+03
45.50	6.291E+00	8.450E+02	8.077E+00	1.919E+00	2.799E-01	2.642E+00	-5.844E-01	2.436E+00	-3.361E-01	1.026E+02	1.607E+02	2.271E+02	1.067E+03
45.55	6.298E+00	8.453E+02	8.079E+00	1.866E+00	2.803E-01	2.645E+00	-6.001E-01	2.449E+00	-3.184E-01	1.004E+02	1.587E+02	2.202E+02	1.070E+03
45.60	6.266E+00	8.457E+02	8.080E+00	1.824E+00	2.789E-01	2.635E+00	-6.118E-01	2.471E+00	-3.022E-01	9.717E+01	1.562E+02	2.130E+02	1.074E+03
45.65	6.205E+00	8.462E+02	8.080E+00	1.792E+00	2.751E-01	2.619E+00	-6.208E-01	2.496E+00	-2.871E-01	9.398E+01	1.538E+02	2.068E+02	1.073E+03
45.70	6.018E+00	8.467E+02	8.079E+00	1.772E+00	2.687E-01	2.600E+00	-6.278E-01	2.520E+00	-2.729E-01	9.027E+01	1.512E+02	2.004E+02	1.064E+03
45.75	6.129E+00	8.470E+02	8.079E+00	1.761E+00	2.600E-01	2.576E+00	-6.330E-01	2.538E+00	-2.588E-01	8.690E+01	1.479E+02	1.935E+02	1.053E+03
45.80	6.285E+00	8.472E+02	8.078E+00	1.761E+00	2.492E-01	2.543E+00	-6.363E-01	2.546E+00	-2.435E-01	8.522E+01	1.445E+02	1.878E+02	1.043E+03
45.85	6.228E+00	8.472E+02	8.078E+00	1.769E+00	2.368E-01	2.497E+00	-6.379E-01	2.545E+00	-2.266E-01	8.524E+01	1.405E+02	1.821E+02	1.040E+03
45.90	6.094E+00	8.470E+02	8.076E+00	1.784E+00	2.231E-01	2.437E+00	-6.384E-01	2.535E+00	-2.083E-01	8.671E+01	1.359E+02	1.760E+02	1.041E+03
45.95	6.121E+00	8.468E+02	8.075E+00	1.805E+00	2.081E-01	2.366E+00	-6.386E-01	2.518E+00	-1.884E-01	9.024E+01	1.312E+02	1.703E+02	1.044E+03
46.00	6.138E+00	8.465E+02	8.074E+00	1.832E+00	1.922E-01	2.292E+00	-6.392E-01	2.496E+00	-1.670E-01	9.476E+01	1.264E+02	1.648E+02	1.048E+03
46.05	6.005E+00	8.462E+02	8.073E+00	1.867E+00	1.757E-01	2.222E+00	-6.407E-01	2.471E+00	-1.441E-01	9.876E+01	1.211E+02	1.593E+02	1.053E+03
46.10	5.851E+00	8.459E+02	8.071E+00	1.911E+00	1.584E-01	2.166E+00	-6.436E-01	2.445E+00	-1.202E-01	1.008E+02	1.156E+02	1.539E+02	1.056E+03
46.15	6.005E+00	8.456E+02	8.070E+00	1.964E+00	1.402E-01	2.129E+00	-6.481E-01	2.419E+00	-9.595E-02	1.009E+02	1.102E+02	1.487E+02	1.054E+03
46.20	6.201E+00	8.453E+02	8.068E+00	2.024E+00	1.211E-01	2.112E+00	-6.540E-01	2.395E+00	-7.243E-02	9.878E+01	1.048E+02	1.435E+02	1.047E+03
46.25	6.195E+00	8.448E+02	8.066E+00	2.083E+00	1.018E-01	2.117E+00	-6.607E-01	2.375E+00	-5.040E-02	9.534E+01	9.953E+01	1.383E+02	1.039E+03
46.30	6.146E+00	8.442E+02	8.065E+00	2.131E+00	8.322E-02	2.139E+00	-6.674E-01	2.360E+00	-3.010E-02	9.280E+01	9.419E+01	1.334E+02	1.034E+03
46.35	6.110E+00	8.435E+02	8.065E+00	2.161E+00	6.631E-02	2.173E+00	-6.728E-01	2.345E+00	-1.116E-02	9.261E+01	8.861E+01	1.289E+02	1.038E+03
46.40	6.186E+00	8.427E+02	8.064E+00	2.170E+00	5.136E-02	2.210E+00	-6.761E-01	2.331E+00	6.464E-03	9.489E+01	8.269E+01	1.252E+02	1.046E+03
46.45	6.327E+00	8.421E+02	8.063E+00	2.161E+00	3.774E-02	2.244E+00	-6.772E-01	2.320E+00	2.229E-02	9.782E+01	7.622E+01	1.215E+02	1.054E+03
46.50	6.370E+00	8.415E+02	8.061E+00	2.143E+00	2.449E-02	2.271E+00	-6.759E-01	2.318E+00	3.619E-02	1.000E+02	6.997E+01	1.185E+02	1.056E+03
46.55	6.283E+00	8.409E+02	8.061E+00	2.122E+00	1.097E-02	2.289E+00	-6.722E-01	2.325E+00	4.836E-02	9.997E+01	6.409E+01	1.159E+02	1.055E+03
46.60	6.171E+00	8.404E+02	8.060E+00	2.103E+00	-3.091E-03	2.298E+00	-6.665E-01	2.342E+00	5.921E-02	9.727E+01	5.684E+01	1.128E+02	1.052E+03
46.65	6.187E+00	8.399E+02	8.058E+00	2.083E+00	-1.841E-02	2.300E+00	-6.597E-01	2.362E+00	6.928E-02	9.227E+01	5.037E+01	1.102E+02	1.042E+03
46.70	6.195E+00	8.392E+02	8.056E+00	2.060E+00	-3.502E-02	2.300E+00	-6.527E-01	2.378E+00	7.947E-02	8.695E+01	4.395E+01	1.079E+02	1.030E+03
46.75	6.155E+00	8.383E+02	8.054E+00	2.033E+00	-5.264E-02	2.304E+00	-6.466E-01	2.383E+00	9.081E-02	8.143E+01	3.678E+01	1.059E+02	1.022E+03
46.80	6.041E+00	8.373E+02	8.053E+00	1.999E+00	-7.110E-02	2.312E+00	-6.416E-01	2.372E+00	1.042E-01	7.792E+01	2.995E+01	1.047E+02	1.022E+03
46.85	6.159E+00	8.363E+02	8.053E+00	1.961E+00	-9.000E-02	2.322E+00	-6.377E-01	2.347E+00	1.199E-01	7.737E+01	2.233E+01	1.038E+02	1.032E+03
46.90	6.145E+00	8.353E+02	8.052E+00	1.923E+00	-1.092E-01	2.332E+00	-6.346E-01	2.311E+00	1.376E-01	7.827E+01	1.472E+01	1.033E+02	1.046E+03
46.95	6.140E+00	8.345E+02	8.052E+00	1.891E+00	-1.285E-01	2.342E+00	-6.318E-01	2.267E+00	1.566E-01	8.129E+01	6.825E+00	1.030E+02	1.059E+03
47.00	6.271E+00	8.340E+02	8.052E+00	1.871E+00	-1.478E-01	2.354E+00	-6.288E-01	2.221E+00	1.763E-01	8.352E+01	-1.092E+00	1.029E+02	1.069E+03
47.05	6.443E+00	8.336E+02	8.052E+00	1.868E+00	-1.674E-01	2.370E+00	-6.252E-01	2.178E+00	1.951E-01	8.433E+01	-8.324E+00	1.029E+02	1.068E+03
47.10	6.473E+00	8.334E+02	8.052E+00	1.882E+00	-1.873E-01	2.389E+00	-6.208E-01	2.143E+00	2.120E-01	8.470E+01	-1.594E+01	1.029E+02	1.060E+03
47.15	6.412E+00	8.331E+02	8.052E+00	1.911E+00	-2.074E-01	2.411E+00	-6.145E-01	2.121E+00	2.258E-01	8.309E+01	-2.353E+01	1.034E+02	1.047E+03
47.20	6.295E+00	8.328E+02	8.051E+00	1.950E+00	-2.280E-01	2.431E+00	-6.055E-01	2.111E+00	2.359E-01	8.064E+01	-2.995E+01	1.040E+02	1.033E+03
47.25	6.209E+00	8.323E+02	8.051E+00	1.993E+00	-2.487E-01	2.445E+00	-5.933E-01	2.111E+00	2.423E-01	8.023E+01	-3.707E+01	1.049E+02	1.023E+03
47.30	6.248E+00	8.316E+02	8.050E+00	2.033E+00	-2.694E-01	2.446E+00	-5.776E-01	2.119E+00	2.454E-01	8.105E+01	-4.433E+01	1.064E+02	1.019E+03
47.35	6.356E+00	8.308E+02	8.049E+00	2.068E+00	-2.901E-01	2.437E+00	-5.588E-01	2.129E+00	2.460E-01	8.392E+01	-5.175E+01	1.082E+02	1.024E+03
47.40	6.538E+00	8.301E+02	8.048E+00	2.099E+00	-3.113E-01	2.423E+00	-5.382E-01	2.142E+00	2.446E-01	8.808E+01	-5.878E+01	1.102E+02	1.032E+03
47.45	6.555E+00	8.294E+02	8.048E+00	2.127E+00	-3.333E-01	2.406E+00	-5.167E-01	2.155E+00	2.421E-01	9.311E+01	-6.617E+01	1.127E+02	1.041E+03
47.50	6.416E+00	8.289E+02	8.048E+00	2.159E+00	-3.561E-01	2.392E+00	-4.952E-01	2.168E+00	2.395E-01	9.818E+01	-7.345E+01	1.153E+02	1.052E+03
47.55	6.267E+00	8.285E+02	8.049E+00	2.199E+00	-3.798E-01	2.381E+00	-4.744E-01	2.180E+00	2.378E-01	1.012E+02	-8.048E+01	1.182E+02	1.062E+03
47.60	6.195E+00	8.284E+02	8.050E+00	2.251E+00	-4.043E-01	2.374E+00	-4.548E-01	2.190E+00	2.376E-01	1.024E+02	-8.734E+01	1.213E+02	1.066E+03
47.65	6.276E+00	8.284E+02	8.051E+00	2.314E+00	-4.293E-01	2.368E+00	-4.367E-01	2.196E+00	2.390E-01	1.022E+02	-9.424E+01	1.246E+02	1.065E+03
47.70	6.226E+00	8.285E+02	8.052E+00	2.383E+00	-4.542E-01	2.364E+00	-4.198E-01	2.197E+00	2.419E-01	1.013E+02	-1.010E+02	1.279E+02	1.059E+03
47.75	6.264E+00	8.287E+02	8.054E+00	2.450E+00	-4.784E-01	2.362E+00	-4.040E-01	2.193E+00	2.462E-01	9.950E+01	-1.072E+02	1.315E+02	1.052E+03
47.80	6.242E+00	8.289E+02	8.055E+00	2.507E+00	-5.009E-01	2.360E+00	-3.889E-01	2.183E+00	2.512E-01	9.860E+01	-1.135E+02	1.353E+02	1.050E+03
47.85	6.119E+00	8.291E+02	8.057E+00	2.543E+00	-5.211E-01	2.358E+00	-3.739E-01	2.170E+00	2.560E-01	1.017E+02	-1.202E+02	1.395E+02	1.050E+03
47.90	6.008E+00	8.293E+02	8.058E+00	2.554E+00	-5.388E-01	2.357E+00	-3.587E-01	2.154E+00	2.596E-01	1.046E+02	-1.260E+02	1.445E+02	1.051E+03
47.95	5.999E+00	8.296E+02	8.058E+00	2.543E+00	-5.538E-01	2.357E+00	-3.429E-01	2.136E+00	2.616E-01	1.096E+02	-1.319E+02	1.493E+02	1.051E+03
48.00	5.973E+00	8.299E+02	8.059E+00	2.518E+00	-5.669E-01	2.363E+00	-3.268E-01	2.117E+00	2.613E-01	1.140E+02	-1.376E+02	1.550E+02	1.050E+03
48.05	5.910E+00	8.302E+02	8.059E+00	2.488E+00	-5.790E-01	2.376E+00	-3.104E-01	2.096E+00	2.583E-01	1.161E+02	-1.425E+02	1.608E+02	1.046E+03
48.10	5.971E+00	8.305E+02	8.060E+00	2.462E+00	-5.904E-01	2.395E+00	-2.934E-01	2.073E+00	2.529E-01	1.151E+02	-1.472E+02	1.658E+02	1.046E+03
48.15	6.086E+00	8.308E+02	8.062E+00	2.439E+00	-6.008E-01	2.414E+00	-2.753E-01	2.048E+00	2.454E-01	1.114E+02	-1.518E+02	1.716E+02	1.051E+03
48.20	6.013E+00	8.311E+02	8.062E+00	2.421E+00	-6.107E-01	2.427E+00	-2.561E-01	2.020E+00	2.358E-01	1.065E+02	-1.557E+02	1.777E+02	1.055E+03
48.25	5.949E+00	8.315E+02	8.063E+00	2.404E+00	-6.198E-01	2.429E+00	-2.353E-01	1.993E+00	2.244E-01	1.026E+02	-1.590E+02	1.833E+02	1.057E+03
48.30	5.916E+00	8.320E+02	8.065E+00	2.391E+00	-6.282E-01	2.419E+00	-2.127E-01	1.967E+00	2.124E-01	1.002E+02	-1.623E+02	1.895E+02	1.060E+03
48.35	5.969E+00	8.326E+02	8.066E+00	2.385E+00	-6.365E-01	2.402E+00	-1.892E-01	1.947E+00	1.998E-01	9.993E+01	-1.656E+02	1.965E+02	1.062E+03
48.40	5.941E+00	8.332E+02	8.067E+00	2.388E+00	-6.453E-01	2.388E+00	-1.662E-01	1.934E+00	1.869E-01	1.009E+02	-1.686E+02	2.027E+02	1.062E+03
48.45	5.843E+00	8.339E+02	8.069E+00	2.401E+00	-6.548E-01	2.386E+00	-1.446E-01	1.930E+00	1.745E-01	1.039E+02	-1.718E+02	2.093E+02	1.064E+03
48.50	5.741E+00	8.347E+02	8.071E+00	2.424E+00	-6.649E-01	2.399E+00	-1.254E-01	1.934E+00	1.629E-01	1.095E+02	-1.751E+02	2.169E+02	1.068E+03
48.55	5.824E+00	8.355E+02	8.073E+00	2.458E+00	-6.751E-01	2.425E+00	-1.080E-01	1.944E+00	1.521E-01	1.142E+02	-1.779E+02	2.239E+02	1.071E+03
48.60	5.859E+00	8.364E+02	8.074E+00	2.498E+00	-6.851E-01	2.456E+00	-9.184E-02	1.960E+00	1.418E-01	1.173E+02	-1.804E+02	2.303E+02	1.068E+03
48.65	5.857E+00	8.373E+02	8.074E+00	2.540E+00	-6.942E-01	2.482E+00	-7.677E-02	1.982E+00	1.313E-01	1.208E+02	-1.824E+02	2.378E+02	1.060E+03
48.70	5.748E+00	8.381E+02	8.074E+00	2.580E+00	-7.018E-01	2.496E+00	-6.200E-02	2.009E+00	1.198E-01	1.227E+02	-1.838E+02	2.450E+02	1.049E+03
48.75	5.698E+00	8.388E+02	8.075E+00	2.611E+00	-7.068E-01	2.496E+00	-4.687E-02	2.039E+00	1.072E-01	1.230E+02	-1.849E+02	2.514E+02	1.041E+03
48.80	5.589E+00	8.392E+02	8.075E+00	2.629E+00	-7.091E-01	2.482E+00	-3.129E-02	2.065E+00	9.360E-02	1.228E+02	-1.858E+02	2.584E+02	1.040E+03
48.85	5.566E+00	8.396E+02	8.075E+00	2.630E+00	-7.086E-01	2.462E+00	-1.554E-02	2.087E+00	7.879E-02	1.233E+02	-1.865E+02	2.654E+02	1.043E+03
48.90	5.515E+00	8.399E+02	8.074E+00	2.614E+00	-7.062E-01	2.442E+00	-6.830E-05	2.101E+00	6.250E-02	1.233E+02	-1.866E+02	2.725E+02	1.046E+03
48.95	5.562E+00	8.402E+02	8.073E+00	2.586E+00	-7.023E-01	2.430E+00	1.487E-02	2.109E+00	4.461E-02	1.224E+02	-1.860E+02	2.797E+02	1.047E+03
49.00	5.545E+00	8.404E+02	8.073E+00	2.547E+00	-6.972E-01	2.427E+00	2.946E-02	2.114E+00	2.535E-02	1.209E+02	-1.848E+02	2.867E+02	1.050E+03
49.05	5.574E+00	8.406E+02	8.073E+00	2.503E+00	-6.908E-01	2.428E+00	4.427E-02	2.117E+00	5.201E-03	1.198E+02	-1.835E+02	2.941E+02	1.056E+03
49.10	5.551E+00	8.409E+02	8.073E+00	2.455E+00	-6.837E-01	2.426E+00	5.998E-02	2.118E+00	-1.566E-02	1.186E+02	-1.821E+02	3.015E+02	1.061E+03
49.15	5.462E+00	8.412E+02	8.072E+00	2.408E+00	-6.763E-01	2.409E+00	7.720E-02	2.116E+00	-3.714E-02	1.173E+02	-1.805E+02	3.088E+02	1.061E+03
49.20	5.326E+00	8.415E+02	8.072E+00	2.364E+00	-6.690E-01	2.372E+00	9.645E-02	2.111E+00	-5.874E-02	1.161E+02	-1.789E+02	3.160E+02	1.056E+03
49.25	5.248E+00	8.417E+02	8.072E+00	2.328E+00	-6.618E-01	2.317E+00	1.178E-01	2.103E+00	-7.982E-02	1.149E+02	-1.770E+02	3.232E+02	1.051E+03
49.30	5.323E+00	8.419E+02	8.072E+00	2.301E+00	-6.550E-01	2.251E+00	1.404E-01	2.090E+00	-9.995E-02	1.139E+02	-1.754E+02	3.298E+02	1.048E+03
49.35	5.466E+00	8.419E+02	8.071E+00	2.286E+00	-6.489E-01	2.186E+00	1.625E-01	2.074E+00	-1.191E-01	1.136E+02	-1.733E+02	3.366E+02	1.045E+03
49.40	5.514E+00	8.419E+02	8.069E+00	2.285E+00	-6.438E-01	2.130E+00	1.825E-01	2.056E+00	-1.376E-01	1.140E+02	-1.710E+02	3.431E+02	1.041E+03
49.45	5.316E+00	8.417E+02	8.068E+00	2.297E+00	-6.391E-01	2.087E+00	1.995E-01	2.041E+00	-1.555E-01	1.143E+02	-1.681E+02	3.493E+02	1.037E+03
49.50	5.415E+00	8.414E+02	8.067E+00	2.321E+00	-6.338E-01	2.061E+00	2.132E-01	2.031E+00	-1.726E-01	1.152E+02	-1.650E+02	3.557E+02	1.037E+03
49.55	5.368E+00	8.411E+02	8.065E+00	2.349E+00	-6.269E-01	2.045E+00	2.237E-01	2.026E+00	-1.894E-01	1.170E+02	-1.617E+02	3.619E+02	1.036E+03
49.60	5.323E+00	8.406E+02	8.062E+00	2.376E+00	-6.177E-01	2.037E+00	2.312E-01	2.024E+00	-2.063E-01	1.186E+02	-1.578E+02	3.677E+02	1.032E+03
49.65	5.224E+00	8.400E+02	8.059E+00	2.398E+00	-6.062E-01	2.030E+00	2.362E-01	2.021E+00	-2.235E-01	1.207E+02	-1.530E+02	3.737E+02	1.024E+03
49.70	5.031E+00	8.391E+02	8.056E+00	2.413E+00	-5.923E-01	2.022E+00	2.398E-01	2.014E+00	-2.410E-01	1.224E+02	-1.480E+02	3.791E+02	1.017E+03
49.75	5.047E+00	8.381E+02	8.054E+00	2.420E+00	-5.761E-01	2.014E+00	2.427E-01	2.003E+00	-2.587E-01	1.242E+02	-1.428E+02	3.844E+02	1.017E+03
49.80	4.879E+00	8.370E+02	8.051E+00	2.420E+00	-5.581E-01	2.012E+00	2.450E-01	1.991E+00	-2.771E-01	1.239E+02	-1.372E+02	3.894E+02	1.021E+03
49.85	4.928E+00	8.358E+02	8.048E+00	2.415E+00	-5.395E-01	2.019E+00	2.464E-01	1.985E+00	-2.969E-01	1.220E+02	-1.313E+02	3.940E+02	1.022E+03
49.90	5.027E+00	8.346E+02	8.045E+00	2.407E+00	-5.213E-01	2.040E+00	2.465E-01	1.991E+00	-3.186E-01	1.192E+02	-1.249E+02	3.987E+02	1.021E+03
49.95	5.038E+00	8.333E+02	8.043E+00	2.397E+00	-5.038E-01	2.076E+00	2.456E-01	2.012E+00	-3.419E-01	1.158E+02	-1.183E+02	4.034E+02	1.022E+03
50.00	4.985E+00	8.320E+02	8.042E+00	2.384E+00	-4.867E-01	2.123E+00	2.443E-01	2.051E+00	-3.662E-01	1.137E+02	-1.123E+02	4.079E+02	1.030E+03
50.05	4.904E+00	8.307E+02	8.042E+00	2.369E+00	-4.700E-01	2.178E+00	2.430E-01	2.104E+00	-3.908E-01	1.130E+02	-1.064E+02	4.123E+02	1.043E+03
50.10	5.024E+00	8.297E+02	8.042E+00	2.352E+00	-4.539E-01	2.234E+00	2.422E-01	2.166E+00	-4.149E-01	1.138E+02	-1.003E+02	4.166E+02	1.056E+03
50.15	5.150E+00	8.290E+02	8.042E+00	2.337E+00	-4.387E-01	2.284E+00	2.419E-01	2.233E+00	-4.382E-01	1.158E+02	-9.428E+01	4.206E+02	1.062E+03
50.20	5.081E+00	8.284E+02	8.043E+00	2.325E+00	-4.239E-01	2.325E+00	2.423E-01	2.301E+00	-4.599E-01	1.198E+02	-8.835E+01	4.243E+02	1.063E+03
50.25	5.083E+00	8.280E+02	8.045E+00	2.316E+00	-4.084E-01	2.355E+00	2.434E-01	2.364E+00	-4.795E-01	1.230E+02	-8.219E+01	4.277E+02	1.063E+03
50.30	5.045E+00	8.278E+02	8.047E+00	2.311E+00	-3.917E-01	2.374E+00	2.444E-01	2.420E+00	-4.968E-01	1.263E+02	-7.653E+01	4.305E+02	1.062E+03
50.35	5.019E+00	8.276E+02	8.047E+00	2.311E+00	-3.740E-01	2.385E+00	2.441E-01	2.464E+00	-5.124E-01	1.266E+02	-7.009E+01	4.330E+02	1.055E+03
50.40	5.000E+00	8.275E+02	8.046E+00	2.314E+00	-3.556E-01	2.390E+00	2.412E-01	2.492E+00	-5.271E-01	1.244E+02	-6.277E+01	4.352E+02	1.040E+03
50.45	5.082E+00	8.272E+02	8.045E+00	2.319E+00	-3.366E-01	2.391E+00	2.354E-01	2.504E+00	-5.412E-01	1.219E+02	-5.533E+01	4.368E+02	1.021E+03
50.50	5.105E+00	8.267E+02	8.044E+00	2.322E+00	-3.164E-01	2.386E+00	2.275E-01	2.500E+00	-5.548E-01	1.188E+02	-4.692E+01	4.383E+02	1.009E+03
50.55	5.130E+00	8.261E+02	8.045E+00	2.318E+00	-2.944E-01	2.371E+00	2.185E-01	2.484E+00	-5.678E-01	1.163E+02	-3.915E+01	4.392E+02	1.011E+03
50.60	5.199E+00	8.254E+02	8.045E+00	2.307E+00	-2.711E-01	2.346E+00	2.093E-01	2.458E+00	-5.804E-01	1.155E+02	-3.135E+01	4.402E+02	1.025E+03
50.65	5.263E+00	8.248E+02	8.044E+00	2.293E+00	-2.474E-01	2.307E+00	2.003E-01	2.427E+00	-5.930E-01	1.156E+02	-2.307E+01	4.412E+02	1.042E+03
50.70	5.209E+00	8.244E+02	8.044E+00	2.281E+00	-2.242E-01	2.257E+00	1.919E-01	2.393E+00	-6.057E-01	1.156E+02	-1.527E+01	4.419E+02	1.055E+03
50.75	5.180E+00	8.242E+02	8.046E+00	2.276E+00	-2.020E-01	2.201E+00	1.845E-01	2.362E+00	-6.183E-01	1.154E+02	-7.083E+00	4.424E+02	1.065E+03
50.80	5.303E+00	8.244E+02	8.049E+00	2.278E+00	-1.809E-01	2.147E+00	1.786E-01	2.340E+00	-6.304E-01	1.149E+02	8.571E-01	4.423E+02	1.073E+03
50.85	5.248E+00	8.247E+02	8.050E+00	2.287E+00	-1.610E-01	2.100E+00	1.737E-01	2.331E+00	-6.416E-01	1.144E+02	8.526E+00	4.417E+02	1.074E+03
50.90	5.272E+00	8.252E+02	8.052E+00	2.299E+00	-1.425E-01	2.065E+00	1.689E-01	2.333E+00	-6.514E-01	1.150E+02	1.523E+01	4.407E+02	1.067E+03
50.95	5.264E+00	8.258E+02	8.053E+00	2.313E+00	-1.258E-01	2.043E+00	1.637E-01	2.346E+00	-6.599E-01	1.168E+02	2.207E+01	4.397E+02	1.053E+03
51.00	5.267E+00	8.263E+02	8.054E+00	2.327E+00	-1.109E-01	2.034E+00	1.578E-01	2.369E+00	-6.668E-01	1.192E+02	2.897E+01	4.386E+02	1.039E+03
51.05	5.315E+00	8.266E+02	8.054E+00	2.340E+00	-9.720E-02	2.032E+00	1.506E-01	2.401E+00	-6.725E-01	1.222E+02	3.505E+01	4.374E+02	1.028E+03
51.10	5.448E+00	8.268E+02	8.055E+00	2.354E+00	-8.470E-02	2.035E+00	1.419E-01	2.436E+00	-6.773E-01	1.254E+02	4.073E+01	4.358E+02	1.024E+03
51.15	5.701E+00	8.269E+02	8.055E+00	2.371E+00	-7.335E-02	2.039E+00	1.318E-01	2.472E+00	-6.815E-01	1.275E+02	4.700E+01	4.333E+02	1.026E+03
51.20	5.748E+00	8.269E+02	8.054E+00	2.393E+00	-6.271E-02	2.042E+00	1.197E-01	2.506E+00	-6.850E-01	1.282E+02	5.307E+01	4.301E+02	1.031E+03
51.25	5.524E+00	8.270E+02	8.054E+00	2.421E+00	-5.227E-02	2.045E+00	1.057E-01	2.533E+00	-6.871E-01	1.282E+02	5.848E+01	4.269E+02	1.039E+03
51.30	5.430E+00	8.271E+02	8.056E+00	2.452E+00	-4.156E-02	2.049E+00	8.986E-02	2.550E+00	-6.875E-01	1.275E+02	6.452E+01	4.232E+02	1.051E+03
51.35	5.400E+00	8.274E+02	8.057E+00	2.480E+00	-2.999E-02	2.058E+00	7.206E-02	2.554E+00	-6.863E-01	1.277E+02	7.076E+01	4.193E+02	1.062E+03
51.40	5.329E+00	8.279E+02	8.059E+00	2.501E+00	-1.663E-02	2.074E+00	5.218E-02	2.549E+00	-6.836E-01	1.296E+02	7.655E+01	4.157E+02	1.070E+03
51.45	5.275E+00	8.286E+02	8.061E+00	2.512E+00	-7.206E-04	2.100E+00	3.062E-02	2.533E+00	-6.795E-01	1.322E+02	8.227E+01	4.120E+02	1.074E+03
51.50	5.271E+00	8.294E+02	8.062E+00	2.512E+00	1.780E-02	2.135E+00	7.671E-03	2.506E+00	-6.744E-01	1.341E+02	8.831E+01	4.077E+02	1.072E+03
51.55	5.340E+00	8.303E+02	8.063E+00	2.502E+00	3.854E-02	2.176E+00	-1.644E-02	2.468E+00	-6.689E-01	1.351E+02	9.455E+01	4.029E+02	1.061E+03
51.60	5.166E+00	8.311E+02	8.063E+00	2.482E+00	6.087E-02	2.218E+00	-4.123E-02	2.424E+00	-6.632E-01	1.351E+02	1.007E+02	3.984E+02	1.043E+03
51.65	5.140E+00	8.317E+02	8.064E+00	2.453E+00	8.427E-02	2.254E+00	-6.564E-02	2.377E+00	-6.576E-01	1.334E+02	1.070E+02	3.933E+02	1.029E+03
51.70	5.281E+00	8.321E+02	8.064E+00	2.416E+00	1.080E-01	2.280E+00	-8.901E-02	2.329E+00	-6.520E-01	1.300E+02	1.131E+02	3.882E+02	1.024E+03
51.75	5.262E+00	8.323E+02	8.063E+00	2.371E+00	1.311E-01	2.297E+00	-1.115E-01	2.287E+00	-6.468E-01	1.262E+02	1.188E+02	3.833E+02	1.024E+03
51.80	5.305E+00	8.324E+02	8.062E+00	2.316E+00	1.527E-01	2.306E+00	-1.332E-01	2.252E+00	-6.423E-01	1.212E+02	1.246E+02	3.782E+02	1.028E+03
51.85	5.321E+00	8.324E+02	8.061E+00	2.251E+00	1.725E-01	2.311E+00	-1.543E-01	2.226E+00	-6.378E-01	1.171E+02	1.298E+02	3.725E+02	1.034E+03
51.90	5.277E+00	8.325E+02	8.061E+00	2.177E+00	1.906E-01	2.316E+00	-1.747E-01	2.210E+00	-6.325E-01	1.141E+02	1.344E+02	3.672E+02	1.042E+03
51.95	5.224E+00	8.326E+02	8.062E+00	2.095E+00	2.074E-01	2.323E+00	-1.939E-01	2.205E+00	-6.253E-01	1.119E+02	1.382E+02	3.612E+02	1.054E+03
52.00	5.235E+00	8.328E+02	8.061E+00	2.011E+00	2.225E-01	2.330E+00	-2.118E-01	2.209E+00	-6.159E-01	1.103E+02	1.415E+02	3.555E+02	1.062E+03
52.05	5.257E+00	8.332E+02	8.060E+00	1.932E+00	2.351E-01	2.332E+00	-2.289E-01	2.221E+00	-6.046E-01	1.088E+02	1.446E+02	3.498E+02	1.057E+03
52.10	5.395E+00	8.334E+02	8.058E+00	1.863E+00	2.447E-01	2.322E+00	-2.452E-01	2.236E+00	-5.916E-01	1.074E+02	1.476E+02	3.436E+02	1.039E+03
52.15	5.266E+00	8.335E+02	8.057E+00	1.812E+00	2.518E-01	2.295E+00	-2.602E-01	2.251E+00	-5.766E-01	1.056E+02	1.499E+02	3.371E+02	1.020E+03
52.20	5.108E+00	8.332E+02	8.055E+00	1.782E+00	2.568E-01	2.250E+00	-2.740E-01	2.262E+00	-5.597E-01	1.031E+02	1.519E+02	3.308E+02	1.008E+03
52.25	5.229E+00	8.327E+02	8.053E+00	1.773E+00	2.599E-01	2.191E+00	-2.870E-01	2.265E+00	-5.417E-01	1.014E+02	1.531E+02	3.236E+02	1.002E+03
52.30	5.152E+00	8.319E+02	8.049E+00	1.784E+00	2.608E-01	2.125E+00	-3.004E-01	2.259E+00	-5.233E-01	1.001E+02	1.544E+02	3.163E+02	1.000E+03
52.35	5.012E+00	8.309E+02	8.046E+00	1.814E+00	2.595E-01	2.066E+00	-3.151E-01	2.246E+00	-5.054E-01	1.007E+02	1.556E+02	3.092E+02	1.001E+03
52.40	4.905E+00	8.298E+02	8.044E+00	1.862E+00	2.567E-01	2.023E+00	-3.315E-01	2.229E+00	-4.885E-01	1.034E+02	1.568E+02	3.021E+02	1.010E+03
52.45	4.909E+00	8.287E+02	8.043E+00	1.925E+00	2.529E-01	2.002E+00	-3.494E-01	2.215E+00	-4.726E-01	1.070E+02	1.579E+02	2.948E+02	1.027E+03
52.50	4.925E+00	8.277E+02	8.042E+00	2.005E+00	2.484E-01	2.001E+00	-3.683E-01	2.208E+00	-4.584E-01	1.126E+02	1.587E+02	2.877E+02	1.044E+03
52.55	4.982E+00	8.270E+02	8.042E+00	2.099E+00	2.432E-01	2.010E+00	-3.872E-01	2.209E+00	-4.460E-01	1.192E+02	1.593E+02	2.811E+02	1.057E+03
52.60	5.076E+00	8.265E+02	8.042E+00	2.204E+00	2.380E-01	2.020E+00	-4.048E-01	2.215E+00	-4.345E-01	1.236E+02	1.597E+02	2.736E+02	1.064E+03
52.65	5.167E+00	8.263E+02	8.043E+00	2.314E+00	2.330E-01	2.028E+00	-4.204E-01	2.220E+00	-4.227E-01	1.268E+02	1.600E+02	2.656E+02	1.065E+03
52.70	5.106E+00	8.262E+02	8.045E+00	2.420E+00	2.285E-01	2.034E+00	-4.344E-01	2.219E+00	-4.092E-01	1.303E+02	1.597E+02	2.580E+02	1.060E+03
52.75	5.127E+00	8.262E+02	8.046E+00	2.515E+00	2.242E-01	2.042E+00	-4.471E-01	2.212E+00	-3.937E-01	1.334E+02	1.591E+02	2.506E+02	1.054E+03
52.80	5.216E+00	8.262E+02	8.047E+00	2.592E+00	2.195E-01	2.056E+00	-4.598E-01	2.202E+00	-3.763E-01	1.342E+02	1.585E+02	2.428E+02	1.047E+03
52.85	5.156E+00	8.262E+02	8.047E+00	2.650E+00	2.135E-01	2.080E+00	-4.740E-01	2.196E+00	-3.577E-01	1.353E+02	1.578E+02	2.353E+02	1.037E+03
52.90	5.100E+00	8.261E+02	8.048E+00	2.687E+00	2.061E-01	2.111E+00	-4.899E-01	2.195E+00	-3.383E-01	1.365E+02	1.565E+02	2.289E+02	1.028E+03
52.95	5.134E+00	8.259E+02	8.048E+00	2.706E+00	1.976E-01	2.147E+00	-5.071E-01	2.201E+00	-3.181E-01	1.342E+02	1.547E+02	2.218E+02	1.028E+03
53.00	5.220E+00	8.257E+02	8.049E+00	2.706E+00	1.883E-01	2.180E+00	-5.247E-01	2.215E+00	-2.974E-01	1.315E+02	1.517E+02	2.143E+02	1.035E+03
53.05	5.259E+00	8.256E+02	8.049E+00	2.686E+00	1.788E-01	2.204E+00	-5.420E-01	2.233E+00	-2.759E-01	1.288E+02	1.489E+02	2.086E+02	1.044E+03
53.10	5.180E+00	8.256E+02	8.051E+00	2.644E+00	1.700E-01	2.213E+00	-5.579E-01	2.249E+00	-2.541E-01	1.259E+02	1.456E+02	2.024E+02	1.054E+03
53.15	4.952E+00	8.258E+02	8.052E+00	2.584E+00	1.627E-01	2.203E+00	-5.716E-01	2.261E+00	-2.321E-01	1.226E+02	1.420E+02	1.953E+02	1.063E+03
53.20	5.141E+00	8.262E+02	8.053E+00	2.507E+00	1.576E-01	2.179E+00	-5.831E-01	2.268E+00	-2.101E-01	1.193E+02	1.386E+02	1.890E+02	1.067E+03
53.25	5.291E+00	8.267E+02	8.054E+00	2.419E+00	1.548E-01	2.152E+00	-5.933E-01	2.272E+00	-1.890E-01	1.162E+02	1.355E+02	1.834E+02	1.064E+03
53.30	5.174E+00	8.273E+02	8.055E+00	2.323E+00	1.544E-01	2.133E+00	-6.028E-01	2.277E+00	-1.695E-01	1.114E+02	1.315E+02	1.764E+02	1.054E+03
53.35	5.181E+00	8.278E+02	8.055E+00	2.225E+00	1.558E-01	2.130E+00	-6.121E-01	2.282E+00	-1.519E-01	1.068E+02	1.282E+02	1.709E+02	1.039E+03
53.40	5.090E+00	8.281E+02	8.055E+00	2.126E+00	1.579E-01	2.142E+00	-6.211E-01	2.293E+00	-1.368E-01	1.029E+02	1.251E+02	1.660E+02	1.025E+03
53.45	5.071E+00	8.283E+02	8.055E+00	2.031E+00	1.602E-01	2.164E+00	-6.293E-01	2.310E+00	-1.248E-01	9.794E+01	1.217E+02	1.602E+02	1.016E+03
53.50	5.219E+00	8.282E+02	8.054E+00	1.945E+00	1.611E-01	2.188E+00	-6.364E-01	2.337E+00	-1.158E-01	9.486E+01	1.178E+02	1.547E+02	1.015E+03
53.55	5.279E+00	8.280E+02	8.053E+00	1.872E+00	1.598E-01	2.207E+00	-6.423E-01	2.373E+00	-1.091E-01	9.249E+01	1.145E+02	1.502E+02	1.020E+03
53.60	5.236E+00	8.278E+02	8.054E+00	1.818E+00	1.560E-01	2.217E+00	-6.463E-01	2.418E+00	-1.037E-01	8.854E+01	1.102E+02	1.454E+02	1.035E+03
53.65	5.353E+00	8.278E+02	8.054E+00	1.786E+00	1.490E-01	2.218E+00	-6.486E-01	2.469E+00	-9.844E-02	8.539E+01	1.051E+02	1.407E+02	1.053E+03
53.70	5.496E+00	8.279E+02	8.056E+00	1.776E+00	1.386E-01	2.215E+00	-6.496E-01	2.526E+00	-9.217E-02	8.417E+01	1.000E+02	1.369E+02	1.067E+03
53.75	5.505E+00	8.284E+02	8.057E+00	1.788E+00	1.247E-01	2.213E+00	-6.497E-01	2.586E+00	-8.410E-02	8.283E+01	9.444E+01	1.331E+02	1.077E+03
53.80	5.571E+00	8.290E+02	8.060E+00	1.820E+00	1.073E-01	2.217E+00	-6.498E-01	2.645E+00	-7.375E-02	8.222E+01	8.871E+01	1.291E+02	1.079E+03
53.85	5.492E+00	8.299E+02	8.062E+00	1.868E+00	8.665E-02	2.229E+00	-6.499E-01	2.698E+00	-6.010E-02	8.242E+01	8.283E+01	1.255E+02	1.078E+03
53.90	5.375E+00	8.308E+02	8.065E+00	1.930E+00	6.319E-02	2.244E+00	-6.502E-01	2.740E+00	-4.291E-02	8.373E+01	7.631E+01	1.222E+02	1.072E+03
53.95	5.236E+00	8.318E+02	8.066E+00	2.004E+00	3.714E-02	2.258E+00	-6.504E-01	2.770E+00	-2.264E-02	8.570E+01	6.940E+01	1.192E+02	1.063E+03
54.00	5.238E+00	8.327E+02	8.067E+00	2.087E+00	8.887E-03	2.260E+00	-6.499E-01	2.785E+00	-6.055E-05	8.835E+01	6.193E+01	1.165E+02	1.051E+03
54.05	5.333E+00	8.335E+02	8.069E+00	2.175E+00	-2.100E-02	2.249E+00	-6.484E-01	2.785E+00	2.394E-02	9.133E+01	5.442E+01	1.142E+02	1.041E+03
54.10	5.527E+00	8.342E+02	8.070E+00	2.265E+00	-5.182E-02	2.225E+00	-6.455E-01	2.769E+00	4.841E-02	9.398E+01	4.659E+01	1.119E+02	1.039E+03
54.15	5.644E+00	8.348E+02	8.071E+00	2.354E+00	-8.283E-02	2.190E+00	-6.413E-01	2.733E+00	7.275E-02	9.635E+01	3.860E+01	1.094E+02	1.045E+03
54.20	5.708E+00	8.354E+02	8.073E+00	2.436E+00	-1.132E-01	2.153E+00	-6.361E-01	2.675E+00	9.662E-02	9.845E+01	3.079E+01	1.071E+02	1.057E+03
54.25	5.720E+00	8.362E+02	8.074E+00	2.506E+00	-1.422E-01	2.120E+00	-6.302E-01	2.597E+00	1.197E-01	1.004E+02	2.311E+01	1.052E+02	1.070E+03
54.30	5.701E+00	8.371E+02	8.076E+00	2.560E+00	-1.691E-01	2.098E+00	-6.238E-01	2.503E+00	1.416E-01	1.024E+02	1.525E+01	1.037E+02	1.080E+03
54.35	5.679E+00	8.382E+02	8.078E+00	2.600E+00	-1.935E-01	2.089E+00	-6.166E-01	2.401E+00	1.616E-01	1.042E+02	8.101E+00	1.028E+02	1.084E+03
54.40	5.719E+00	8.394E+02	8.080E+00	2.627E+00	-2.154E-01	2.094E+00	-6.086E-01	2.300E+00	1.791E-01	1.049E+02	6.616E-01	1.023E+02	1.084E+03
54.45	5.898E+00	8.407E+02	8.083E+00	2.645E+00	-2.352E-01	2.114E+00	-5.997E-01	2.208E+00	1.934E-01	1.043E+02	-6.271E+00	1.021E+02	1.082E+03
54.50	6.038E+00	8.421E+02	8.085E+00	2.655E+00	-2.531E-01	2.145E+00	-5.898E-01	2.129E+00	2.047E-01	1.024E+02	-1.329E+01	1.021E+02	1.079E+03
54.55	5.850E+00	8.435E+02	8.087E+00	2.653E+00	-2.695E-01	2.182E+00	-5.789E-01	2.065E+00	2.129E-01	9.972E+01	-1.993E+01	1.023E+02	1.074E+03
54.60	5.727E+00	8.448E+02	8.090E+00	2.633E+00	-2.840E-01	2.221E+00	-5.670E-01	2.018E+00	2.192E-01	9.755E+01	-2.682E+01	1.028E+02	1.071E+03
54.65	5.689E+00	8.461E+02	8.091E+00	2.590E+00	-2.964E-01	2.260E+00	-5.547E-01	1.988E+00	2.243E-01	9.630E+01	-3.415E+01	1.039E+02	1.070E+03
54.70	5.597E+00	8.474E+02	8.093E+00	2.523E+00	-3.070E-01	2.300E+00	-5.421E-01	1.977E+00	2.287E-01	9.615E+01	-4.096E+01	1.056E+02	1.071E+03
54.75	5.664E+00	8.486E+02	8.093E+00	2.438E+00	-3.163E-01	2.339E+00	-5.301E-01	1.985E+00	2.324E-01	9.644E+01	-4.813E+01	1.078E+02	1.071E+03
54.80	5.729E+00	8.498E+02	8.093E+00	2.346E+00	-3.259E-01	2.377E+00	-5.192E-01	2.011E+00	2.349E-01	9.586E+01	-5.525E+01	1.104E+02	1.068E+03
54.85	5.764E+00	8.509E+02	8.094E+00	2.258E+00	-3.366E-01	2.410E+00	-5.090E-01	2.054E+00	2.361E-01	9.323E+01	-6.168E+01	1.130E+02	1.063E+03
54.90	5.796E+00	8.518E+02	8.094E+00	2.181E+00	-3.486E-01	2.433E+00	-4.988E-01	2.113E+00	2.361E-01	8.871E+01	-6.821E+01	1.156E+02	1.060E+03
54.95	6.017E+00	8.527E+02	8.095E+00	2.120E+00	-3.620E-01	2.441E+00	-4.878E-01	2.185E+00	2.346E-01	8.303E+01	-7.466E+01	1.183E+02	1.061E+03
55.00	6.248E+00	8.534E+02	8.096E+00	2.075E+00	-3.766E-01	2.429E+00	-4.750E-01	2.269E+00	2.317E-01	7.742E+01	-8.097E+01	1.212E+02	1.068E+03
55.05	6.290E+00	8.543E+02	8.097E+00	2.041E+00	-3.916E-01	2.395E+00	-4.594E-01	2.361E+00	2.275E-01	7.343E+01	-8.722E+01	1.244E+02	1.079E+03
55.10	6.241E+00	8.552E+02	8.098E+00	2.015E+00	-4.067E-01	2.341E+00	-4.412E-01	2.456E+00	2.221E-01	7.175E+01	-9.393E+01	1.284E+02	1.090E+03
55.15	6.064E+00	8.562E+02	8.099E+00	1.993E+00	-4.215E-01	2.272E+00	-4.204E-01	2.546E+00	2.157E-01	7.237E+01	-1.001E+02	1.327E+02	1.095E+03
55.20	5.888E+00	8.574E+02	8.101E+00	1.978E+00	-4.360E-01	2.196E+00	-3.973E-01	2.623E+00	2.087E-01	7.439E+01	-1.058E+02	1.368E+02	1.095E+03
55.25	5.844E+00	8.585E+02	8.102E+00	1.972E+00	-4.504E-01	2.120E+00	-3.725E-01	2.686E+00	2.012E-01	7.760E+01	-1.118E+02	1.414E+02	1.092E+03
55.30	6.121E+00	8.597E+02	8.104E+00	1.981E+00	-4.650E-01	2.049E+00	-3.465E-01	2.733E+00	1.932E-01	8.069E+01	-1.177E+02	1.459E+02	1.087E+03
55.35	6.280E+00	8.608E+02	8.104E+00	2.003E+00	-4.804E-01	1.989E+00	-3.204E-01	2.767E+00	1.844E-01	8.272E+01	-1.232E+02	1.503E+02	1.078E+03
55.40	6.356E+00	8.617E+02	8.104E+00	2.039E+00	-4.968E-01	1.941E+00	-2.948E-01	2.791E+00	1.747E-01	8.359E+01	-1.284E+02	1.555E+02	1.068E+03
55.45	6.287E+00	8.625E+02	8.104E+00	2.084E+00	-5.136E-01	1.906E+00	-2.701E-01	2.804E+00	1.643E-01	8.342E+01	-1.334E+02	1.608E+02	1.062E+03
55.50	6.270E+00	8.630E+02	8.104E+00	2.132E+00	-5.303E-01	1.884E+00	-2.465E-01	2.804E+00	1.540E-01	8.253E+01	-1.379E+02	1.662E+02	1.063E+03
55.55	6.206E+00	8.635E+02	8.104E+00	2.177E+00	-5.464E-01	1.873E+00	-2.243E-01	2.785E+00	1.449E-01	8.197E+01	-1.427E+02	1.717E+02	1.070E+03
55.60	6.233E+00	8.640E+02	8.103E+00	2.215E+00	-5.618E-01	1.877E+00	-2.041E-01	2.742E+00	1.378E-01	8.215E+01	-1.473E+02	1.775E+02	1.077E+03
55.65	6.442E+00	8.645E+02	8.103E+00	2.244E+00	-5.765E-01	1.897E+00	-1.862E-01	2.674E+00	1.335E-01	8.301E+01	-1.518E+02	1.831E+02	1.081E+03
55.70	6.595E+00	8.649E+02	8.103E+00	2.261E+00	-5.902E-01	1.934E+00	-1.706E-01	2.585E+00	1.324E-01	8.482E+01	-1.560E+02	1.892E+02	1.084E+03
55.75	6.507E+00	8.654E+02	8.103E+00	2.270E+00	-6.029E-01	1.990E+00	-1.572E-01	2.484E+00	1.340E-01	8.736E+01	-1.601E+02	1.956E+02	1.085E+03
55.80	6.674E+00	8.659E+02	8.104E+00	2.272E+00	-6.142E-01	2.062E+00	-1.457E-01	2.384E+00	1.371E-01	8.897E+01	-1.637E+02	2.020E+02	1.086E+03
55.85	6.688E+00	8.664E+02	8.103E+00	2.271E+00	-6.241E-01	2.145E+00	-1.360E-01	2.291E+00	1.400E-01	8.964E+01	-1.672E+02	2.088E+02	1.083E+03
55.90	6.638E+00	8.667E+02	8.102E+00	2.265E+00	-6.324E-01	2.231E+00	-1.280E-01	2.211E+00	1.415E-01	8.936E+01	-1.698E+02	2.160E+02	1.075E+03
55.95	6.541E+00	8.670E+02	8.102E+00	2.253E+00	-6.382E-01	2.314E+00	-1.203E-01	2.146E+00	1.408E-01	8.721E+01	-1.722E+02	2.224E+02	1.069E+03
56.00	6.384E+00	8.671E+02	8.101E+00	2.234E+00	-6.414E-01	2.388E+00	-1.127E-01	2.095E+00	1.375E-01	8.490E+01	-1.747E+02	2.293E+02	1.066E+03
56.05	6.340E+00	8.671E+02	8.100E+00	2.206E+00	-6.426E-01	2.453E+00	-1.051E-01	2.060E+00	1.305E-01	8.325E+01	-1.762E+02	2.369E+02	1.063E+03
56.10	6.249E+00	8.670E+02	8.100E+00	2.168E+00	-6.416E-01	2.512E+00	-9.696E-02	2.041E+00	1.198E-01	8.184E+01	-1.772E+02	2.434E+02	1.067E+03
56.15	6.090E+00	8.668E+02	8.100E+00	2.123E+00	-6.385E-01	2.571E+00	-8.826E-02	2.039E+00	1.057E-01	8.203E+01	-1.779E+02	2.510E+02	1.078E+03
56.20	6.095E+00	8.668E+02	8.101E+00	2.073E+00	-6.340E-01	2.634E+00	-7.919E-02	2.049E+00	8.877E-02	8.340E+01	-1.782E+02	2.590E+02	1.094E+03
56.25	6.233E+00	8.670E+02	8.102E+00	2.022E+00	-6.282E-01	2.699E+00	-6.948E-02	2.069E+00	6.940E-02	8.482E+01	-1.783E+02	2.661E+02	1.107E+03
56.30	6.224E+00	8.674E+02	8.104E+00	1.971E+00	-6.214E-01	2.760E+00	-5.869E-02	2.098E+00	4.831E-02	8.651E+01	-1.783E+02	2.737E+02	1.116E+03
56.35	6.069E+00	8.681E+02	8.106E+00	1.921E+00	-6.137E-01	2.810E+00	-4.627E-02	2.137E+00	2.577E-02	8.787E+01	-1.780E+02	2.818E+02	1.119E+03
56.40	6.115E+00	8.689E+02	8.108E+00	1.870E+00	-6.052E-01	2.845E+00	-3.165E-02	2.191E+00	1.967E-03	8.730E+01	-1.774E+02	2.890E+02	1.116E+03
56.45	6.162E+00	8.698E+02	8.110E+00	1.818E+00	-5.962E-01	2.859E+00	-1.495E-02	2.258E+00	-2.279E-02	8.640E+01	-1.765E+02	2.965E+02	1.108E+03
56.50	6.312E+00	8.706E+02	8.110E+00	1.766E+00	-5.872E-01	2.853E+00	3.275E-03	2.334E+00	-4.818E-02	8.427E+01	-1.752E+02	3.044E+02	1.096E+03
56.55	6.269E+00	8.714E+02	8.111E+00	1.718E+00	-5.788E-01	2.829E+00	2.231E-02	2.412E+00	-7.370E-02	8.044E+01	-1.737E+02	3.113E+02	1.082E+03
56.60	6.201E+00	8.719E+02	8.111E+00	1.675E+00	-5.715E-01	2.793E+00	4.134E-02	2.484E+00	-9.846E-02	7.668E+01	-1.722E+02	3.185E+02	1.072E+03
56.65	6.127E+00	8.722E+02	8.112E+00	1.638E+00	-5.653E-01	2.749E+00	5.974E-02	2.542E+00	-1.220E-01	7.369E+01	-1.702E+02	3.264E+02	1.071E+03
56.70	6.035E+00	8.725E+02	8.112E+00	1.606E+00	-5.598E-01	2.700E+00	7.749E-02	2.585E+00	-1.444E-01	7.214E+01	-1.684E+02	3.333E+02	1.077E+03
56.75	6.048E+00	8.728E+02	8.113E+00	1.582E+00	-5.549E-01	2.645E+00	9.485E-02	2.615E+00	-1.657E-01	7.240E+01	-1.663E+02	3.402E+02	1.092E+03
56.80	6.165E+00	8.732E+02	8.114E+00	1.569E+00	-5.505E-01	2.583E+00	1.119E-01	2.635E+00	-1.865E-01	7.498E+01	-1.639E+02	3.473E+02	1.107E+03
56.85	6.258E+00	8.738E+02	8.115E+00	1.573E+00	-5.463E-01	2.515E+00	1.287E-01	2.650E+00	-2.075E-01	7.924E+01	-1.609E+02	3.542E+02	1.116E+03
56.90	6.257E+00	8.746E+02	8.117E+00	1.600E+00	-5.419E-01	2.441E+00	1.455E-01	2.661E+00	-2.284E-01	8.286E+01	-1.578E+02	3.607E+02	1.121E+03
56.95	6.342E+00	8.755E+02	8.118E+00	1.653E+00	-5.374E-01	2.365E+00	1.620E-01	2.668E+00	-2.489E-01	8.507E+01	-1.543E+02	3.671E+02	1.120E+03
57.00	6.454E+00	8.765E+02	8.120E+00	1.726E+00	-5.326E-01	2.292E+00	1.777E-01	2.664E+00	-2.684E-01	8.687E+01	-1.505E+02	3.733E+02	1.114E+03
57.05	6.421E+00	8.774E+02	8.121E+00	1.812E+00	-5.272E-01	2.228E+00	1.921E-01	2.643E+00	-2.862E-01	8.927E+01	-1.466E+02	3.792E+02	1.105E+03
57.10	6.435E+00	8.783E+02	8.122E+00	1.900E+00	-5.211E-01	2.179E+00	2.047E-01	2.600E+00	-3.019E-01	9.318E+01	-1.422E+02	3.847E+02	1.096E+03
57.15	6.404E+00	8.791E+02	8.123E+00	1.984E+00	-5.141E-01	2.148E+00	2.152E-01	2.536E+00	-3.149E-01	9.878E+01	-1.375E+02	3.900E+02	1.089E+03
57.20	6.473E+00	8.797E+02	8.123E+00	2.060E+00	-5.065E-01	2.136E+00	2.233E-01	2.453E+00	-3.256E-01	1.053E+02	-1.329E+02	3.948E+02	1.087E+03
57.25	6.470E+00	8.802E+02	8.123E+00	2.129E+00	-4.989E-01	2.143E+00	2.281E-01	2.361E+00	-3.345E-01	1.120E+02	-1.280E+02	3.999E+02	1.088E+03
57.30	6.555E+00	8.806E+02	8.123E+00	2.190E+00	-4.913E-01	2.170E+00	2.293E-01	2.272E+00	-3.429E-01	1.171E+02	-1.231E+02	4.049E+02	1.092E+03
57.35	6.594E+00	8.811E+02	8.124E+00	2.242E+00	-4.834E-01	2.216E+00	2.267E-01	2.191E+00	-3.515E-01	1.196E+02	-1.182E+02	4.096E+02	1.100E+03
57.40	6.498E+00	8.816E+02	8.126E+00	2.282E+00	-4.746E-01	2.281E+00	2.209E-01	2.125E+00	-3.605E-01	1.198E+02	-1.128E+02	4.142E+02	1.113E+03
57.45	6.450E+00	8.823E+02	8.127E+00	2.310E+00	-4.641E-01	2.365E+00	2.122E-01	2.072E+00	-3.701E-01	1.183E+02	-1.070E+02	4.184E+02	1.126E+03
57.50	6.477E+00	8.832E+02	8.130E+00	2.322E+00	-4.512E-01	2.465E+00	2.014E-01	2.028E+00	-3.799E-01	1.155E+02	-1.011E+02	4.216E+02	1.136E+03
57.55	6.616E+00	8.844E+02	8.133E+00	2.316E+00	-4.356E-01	2.570E+00	1.901E-01	1.988E+00	-3.896E-01	1.132E+02	-9.484E+01	4.249E+02	1.142E+03
57.60	6.616E+00	8.857E+02	8.134E+00	2.291E+00	-4.171E-01	2.669E+00	1.794E-01	1.951E+00	-3.993E-01	1.114E+02	-8.811E+01	4.283E+02	1.139E+03
57.65	6.570E+00	8.870E+02	8.137E+00	2.246E+00	-3.955E-01	2.753E+00	1.704E-01	1.918E+00	-4.098E-01	1.097E+02	-8.165E+01	4.315E+02	1.129E+03
57.70	6.506E+00	8.884E+02	8.139E+00	2.187E+00	-3.714E-01	2.814E+00	1.640E-01	1.894E+00	-4.216E-01	1.096E+02	-7.556E+01	4.348E+02	1.120E+03
57.75	6.712E+00	8.896E+02	8.139E+00	2.123E+00	-3.464E-01	2.854E+00	1.600E-01	1.881E+00	-4.354E-01	1.082E+02	-6.769E+01	4.383E+02	1.109E+03
57.80	6.754E+00	8.906E+02	8.139E+00	2.066E+00	-3.217E-01	2.879E+00	1.569E-01	1.884E+00	-4.521E-01	1.056E+02	-6.084E+01	4.407E+02	1.096E+03
57.85	6.707E+00	8.914E+02	8.139E+00	2.022E+00	-2.985E-01	2.895E+00	1.538E-01	1.903E+00	-4.715E-01	1.015E+02	-5.355E+01	4.425E+02	1.085E+03
57.90	6.693E+00	8.919E+02	8.138E+00	1.992E+00	-2.773E-01	2.907E+00	1.498E-01	1.934E+00	-4.925E-01	9.697E+01	-4.610E+01	4.439E+02	1.083E+03
57.95	6.565E+00	8.923E+02	8.137E+00	1.975E+00	-2.580E-01	2.914E+00	1.441E-01	1.975E+00	-5.143E-01	9.390E+01	-3.804E+01	4.453E+02	1.087E+03
58.00	6.486E+00	8.926E+02	8.139E+00	1.969E+00	-2.392E-01	2.909E+00	1.380E-01	2.019E+00	-5.346E-01	9.088E+01	-3.144E+01	4.465E+02	1.104E+03
58.05	6.692E+00	8.930E+02	8.140E+00	1.970E+00	-2.208E-01	2.883E+00	1.333E-01	2.055E+00	-5.520E-01	9.197E+01	-2.466E+01	4.481E+02	1.127E+03
58.10	6.834E+00	8.937E+02	8.139E+00	1.978E+00	-2.034E-01	2.831E+00	1.302E-01	2.077E+00	-5.666E-01	9.454E+01	-1.690E+01	4.493E+02	1.141E+03
58.15	6.789E+00	8.945E+02	8.138E+00	1.997E+00	-1.870E-01	2.753E+00	1.288E-01	2.088E+00	-5.789E-01	9.927E+01	-1.020E+01	4.499E+02	1.136E+03
58.20	6.852E+00	8.953E+02	8.140E+00	2.028E+00	-1.717E-01	2.656E+00	1.295E-01	2.091E+00	-5.886E-01	1.041E+02	-3.514E+00	4.498E+02	1.125E+03
58.25	6.916E+00	8.961E+02	8.141E+00	2.076E+00	-1.576E-01	2.553E+00	1.316E-01	2.090E+00	-5.958E-01	1.087E+02	3.533E+00	4.489E+02	1.116E+03
58.30	6.816E+00	8.967E+02	8.140E+00	2.139E+00	-1.451E-01	2.454E+00	1.331E-01	2.091E+00	-6.013E-01	1.110E+02	1.018E+01	4.477E+02	1.103E+03
58.35	6.800E+00	8.971E+02	8.138E+00	2.213E+00	-1.348E-01	2.365E+00	1.324E-01	2.095E+00	-6.059E-01	1.132E+02	1.584E+01	4.465E+02	1.088E+03
58.40	6.759E+00	8.971E+02	8.135E+00	2.292E+00	-1.266E-01	2.291E+00	1.285E-01	2.098E+00	-6.103E-01	1.149E+02	2.261E+01	4.451E+02	1.073E+03
58.45	6.650E+00	8.967E+02	8.133E+00	2.371E+00	-1.197E-01	2.231E+00	1.215E-01	2.099E+00	-6.145E-01	1.163E+02	2.988E+01	4.436E+02	1.066E+03
58.50	6.627E+00	8.962E+02	8.134E+00	2.448E+00	-1.123E-01	2.184E+00	1.124E-01	2.092E+00	-6.176E-01	1.189E+02	3.574E+01	4.419E+02	1.078E+03
58.55	6.517E+00	8.956E+02	8.133E+00	2.523E+00	-1.045E-01	2.147E+00	1.016E-01	2.075E+00	-6.197E-01	1.220E+02	4.175E+01	4.392E+02	1.102E+03
58.60	6.683E+00	8.952E+02	8.131E+00	2.595E+00	-9.650E-02	2.122E+00	8.881E-02	2.048E+00	-6.213E-01	1.264E+02	4.827E+01	4.356E+02	1.123E+03
58.65	6.751E+00	8.951E+02	8.132E+00	2.666E+00	-8.792E-02	2.107E+00	7.431E-02	2.015E+00	-6.221E-01	1.309E+02	5.432E+01	4.326E+02	1.137E+03
[...]
622.90	5.235E+00	5.633E+02	7.712E+00	1.932E+00	-4.008E-01	1.717E+00	3.225E-01	2.006E+00	-4.168E-01	9.360E+01	-8.859E+01	4.016E+02	7.248E+02
622.95	5.323E+00	5.628E+02	7.711E+00	1.967E+00	-3.856E-01	1.722E+00	3.224E-01	2.059E+00	-4.352E-01	9.657E+01	-8.241E+01	4.038E+02	7.150E+02
623.00	5.460E+00	5.622E+02	7.709E+00	1.990E+00	-3.667E-01	1.727E+00	3.205E-01	2.112E+00	-4.542E-01	1.003E+02	-7.536E+01	4.063E+02	7.080E+02
623.05	5.443E+00	5.614E+02	7.706E+00	1.998E+00	-3.448E-01	1.731E+00	3.162E-01	2.162E+00	-4.742E-01	1.034E+02	-6.829E+01	4.084E+02	7.031E+02
623.10	5.380E+00	5.605E+02	7.704E+00	1.994E+00	-3.207E-01	1.735E+00	3.098E-01	2.206E+00	-4.949E-01	1.055E+02	-6.117E+01	4.105E+02	7.016E+02
623.15	5.545E+00	5.595E+02	7.701E+00	1.981E+00	-2.957E-01	1.737E+00	3.021E-01	2.241E+00	-5.155E-01	1.054E+02	-5.334E+01	4.126E+02	7.041E+02
623.20	5.536E+00	5.584E+02	7.699E+00	1.966E+00	-2.705E-01	1.738E+00	2.938E-01	2.263E+00	-5.351E-01	1.026E+02	-4.545E+01	4.143E+02	7.093E+02
623.25	5.455E+00	5.573E+02	7.698E+00	1.948E+00	-2.455E-01	1.738E+00	2.856E-01	2.270E+00	-5.530E-01	9.769E+01	-3.795E+01	4.155E+02	7.161E+02
623.30	5.435E+00	5.563E+02	7.696E+00	1.925E+00	-2.214E-01	1.736E+00	2.780E-01	2.265E+00	-5.685E-01	9.238E+01	-3.008E+01	4.164E+02	7.226E+02
623.35	5.471E+00	5.553E+02	7.694E+00	1.895E+00	-1.985E-01	1.732E+00	2.708E-01	2.251E+00	-5.818E-01	8.776E+01	-2.231E+01	4.170E+02	7.248E+02
623.40	5.409E+00	5.544E+02	7.693E+00	1.855E+00	-1.769E-01	1.726E+00	2.637E-01	2.233E+00	-5.928E-01	8.525E+01	-1.533E+01	4.177E+02	7.231E+02
623.45	5.426E+00	5.535E+02	7.693E+00	1.806E+00	-1.566E-01	1.720E+00	2.571E-01	2.216E+00	-6.014E-01	8.541E+01	-8.793E+00	4.186E+02	7.217E+02
623.50	5.396E+00	5.526E+02	7.692E+00	1.752E+00	-1.377E-01	1.713E+00	2.508E-01	2.202E+00	-6.081E-01	8.747E+01	-2.296E+00	4.194E+02	7.199E+02
623.55	5.291E+00	5.517E+02	7.691E+00	1.703E+00	-1.202E-01	1.708E+00	2.443E-01	2.188E+00	-6.131E-01	9.010E+01	3.733E+00	4.200E+02	7.151E+02
623.60	5.315E+00	5.509E+02	7.689E+00	1.665E+00	-1.043E-01	1.707E+00	2.374E-01	2.175E+00	-6.167E-01	9.202E+01	9.577E+00	4.201E+02	7.100E+02
623.65	5.433E+00	5.500E+02	7.688E+00	1.644E+00	-9.006E-02	1.710E+00	2.297E-01	2.162E+00	-6.197E-01	9.215E+01	1.605E+01	4.192E+02	7.069E+02
623.70	5.342E+00	5.490E+02	7.687E+00	1.642E+00	-7.708E-02	1.718E+00	2.201E-01	2.151E+00	-6.228E-01	9.045E+01	2.247E+01	4.178E+02	7.054E+02
623.75	5.351E+00	5.481E+02	7.687E+00	1.656E+00	-6.455E-02	1.731E+00	2.083E-01	2.143E+00	-6.262E-01	8.794E+01	2.872E+01	4.162E+02	7.082E+02
623.80	5.239E+00	5.472E+02	7.687E+00	1.681E+00	-5.151E-02	1.753E+00	1.941E-01	2.140E+00	-6.301E-01	8.538E+01	3.541E+01	4.144E+02	7.165E+02
623.85	5.157E+00	5.464E+02	7.687E+00	1.712E+00	-3.713E-02	1.784E+00	1.770E-01	2.143E+00	-6.345E-01	8.356E+01	4.248E+01	4.125E+02	7.255E+02
623.90	5.176E+00	5.458E+02	7.687E+00	1.745E+00	-2.064E-02	1.828E+00	1.571E-01	2.155E+00	-6.396E-01	8.329E+01	4.955E+01	4.107E+02	7.318E+02
623.95	5.292E+00	5.453E+02	7.689E+00	1.778E+00	-1.580E-03	1.884E+00	1.349E-01	2.172E+00	-6.451E-01	8.482E+01	5.672E+01	4.086E+02	7.370E+02
624.00	5.361E+00	5.449E+02	7.691E+00	1.807E+00	1.990E-02	1.950E+00	1.107E-01	2.194E+00	-6.508E-01	8.781E+01	6.406E+01	4.060E+02	7.412E+02
624.05	5.298E+00	5.448E+02	7.693E+00	1.833E+00	4.322E-02	2.023E+00	8.531E-02	2.220E+00	-6.568E-01	9.138E+01	7.142E+01	4.033E+02	7.447E+02
624.10	5.241E+00	5.449E+02	7.695E+00	1.854E+00	6.750E-02	2.099E+00	5.923E-02	2.249E+00	-6.628E-01	9.417E+01	7.878E+01	4.001E+02	7.469E+02
624.15	5.280E+00	5.451E+02	7.697E+00	1.871E+00	9.145E-02	2.174E+00	3.287E-02	2.278E+00	-6.684E-01	9.576E+01	8.607E+01	3.973E+02	7.444E+02
624.20	5.266E+00	5.454E+02	7.699E+00	1.884E+00	1.141E-01	2.247E+00	6.983E-03	2.305E+00	-6.729E-01	9.545E+01	9.347E+01	3.942E+02	7.404E+02
624.25	5.228E+00	5.458E+02	7.702E+00	1.891E+00	1.349E-01	2.313E+00	-1.772E-02	2.327E+00	-6.755E-01	9.379E+01	1.005E+02	3.907E+02	7.378E+02
624.30	5.216E+00	5.463E+02	7.705E+00	1.891E+00	1.533E-01	2.369E+00	-4.103E-02	2.341E+00	-6.756E-01	9.135E+01	1.068E+02	3.873E+02	7.378E+02
624.35	5.172E+00	5.468E+02	7.708E+00	1.887E+00	1.689E-01	2.413E+00	-6.268E-02	2.343E+00	-6.725E-01	8.850E+01	1.124E+02	3.835E+02	7.425E+02
624.40	5.357E+00	5.475E+02	7.711E+00	1.879E+00	1.815E-01	2.442E+00	-8.265E-02	2.328E+00	-6.660E-01	8.526E+01	1.174E+02	3.790E+02	7.508E+02
624.45	5.538E+00	5.484E+02	7.713E+00	1.868E+00	1.911E-01	2.456E+00	-1.015E-01	2.299E+00	-6.563E-01	8.242E+01	1.220E+02	3.743E+02	7.558E+02
624.50	5.501E+00	5.494E+02	7.717E+00	1.853E+00	1.988E-01	2.456E+00	-1.194E-01	2.256E+00	-6.435E-01	8.086E+01	1.264E+02	3.704E+02	7.578E+02
624.55	5.522E+00	5.506E+02	7.721E+00	1.832E+00	2.062E-01	2.446E+00	-1.357E-01	2.200E+00	-6.274E-01	8.053E+01	1.302E+02	3.656E+02	7.637E+02
624.60	5.562E+00	5.519E+02	7.723E+00	1.806E+00	2.139E-01	2.424E+00	-1.510E-01	2.134E+00	-6.090E-01	8.141E+01	1.334E+02	3.602E+02	7.656E+02
624.65	5.416E+00	5.533E+02	7.724E+00	1.776E+00	2.218E-01	2.394E+00	-1.661E-01	2.062E+00	-5.900E-01	8.378E+01	1.366E+02	3.554E+02	7.559E+02
624.70	5.445E+00	5.547E+02	7.726E+00	1.748E+00	2.298E-01	2.355E+00	-1.813E-01	1.987E+00	-5.713E-01	8.564E+01	1.401E+02	3.498E+02	7.414E+02
624.75	5.419E+00	5.560E+02	7.729E+00	1.726E+00	2.382E-01	2.309E+00	-1.960E-01	1.909E+00	-5.531E-01	8.748E+01	1.431E+02	3.436E+02	7.314E+02
624.80	5.426E+00	5.571E+02	7.730E+00	1.715E+00	2.469E-01	2.257E+00	-2.104E-01	1.831E+00	-5.355E-01	8.663E+01	1.462E+02	3.379E+02	7.280E+02
624.85	5.476E+00	5.582E+02	7.729E+00	1.714E+00	2.554E-01	2.200E+00	-2.247E-01	1.758E+00	-5.198E-01	8.435E+01	1.493E+02	3.313E+02	7.255E+02
624.90	5.427E+00	5.591E+02	7.729E+00	1.722E+00	2.634E-01	2.137E+00	-2.393E-01	1.697E+00	-5.068E-01	8.169E+01	1.529E+02	3.247E+02	7.209E+02
624.95	5.342E+00	5.599E+02	7.729E+00	1.735E+00	2.715E-01	2.069E+00	-2.538E-01	1.654E+00	-4.960E-01	7.941E+01	1.563E+02	3.182E+02	7.218E+02
625.00	5.384E+00	5.605E+02	7.730E+00	1.747E+00	2.802E-01	2.000E+00	-2.679E-01	1.631E+00	-4.868E-01	7.796E+01	1.595E+02	3.115E+02	7.309E+02
625.05	5.316E+00	5.612E+02	7.731E+00	1.755E+00	2.891E-01	1.935E+00	-2.822E-01	1.628E+00	-4.784E-01	8.060E+01	1.617E+02	3.046E+02	7.440E+02
625.10	5.159E+00	5.620E+02	7.731E+00	1.759E+00	2.979E-01	1.883E+00	-2.973E-01	1.640E+00	-4.700E-01	8.365E+01	1.640E+02	2.986E+02	7.552E+02
625.15	5.249E+00	5.628E+02	7.732E+00	1.761E+00	3.055E-01	1.852E+00	-3.137E-01	1.664E+00	-4.608E-01	8.862E+01	1.657E+02	2.918E+02	7.597E+02
625.20	5.459E+00	5.637E+02	7.732E+00	1.764E+00	3.115E-01	1.845E+00	-3.311E-01	1.695E+00	-4.501E-01	9.279E+01	1.671E+02	2.850E+02	7.572E+02
625.25	5.656E+00	5.646E+02	7.733E+00	1.770E+00	3.156E-01	1.860E+00	-3.488E-01	1.728E+00	-4.374E-01	9.564E+01	1.683E+02	2.787E+02	7.491E+02
625.30	5.749E+00	5.654E+02	7.733E+00	1.777E+00	3.177E-01	1.891E+00	-3.661E-01	1.759E+00	-4.229E-01	9.659E+01	1.689E+02	2.718E+02	7.387E+02
625.35	5.705E+00	5.661E+02	7.732E+00	1.783E+00	3.176E-01	1.927E+00	-3.827E-01	1.788E+00	-4.073E-01	9.624E+01	1.690E+02	2.646E+02	7.274E+02
625.40	5.554E+00	5.666E+02	7.731E+00	1.784E+00	3.156E-01	1.964E+00	-3.986E-01	1.815E+00	-3.914E-01	9.333E+01	1.693E+02	2.577E+02	7.172E+02
625.45	5.483E+00	5.669E+02	7.729E+00	1.777E+00	3.121E-01	1.997E+00	-4.141E-01	1.841E+00	-3.759E-01	9.155E+01	1.684E+02	2.504E+02	7.094E+02
625.50	5.527E+00	5.669E+02	7.728E+00	1.761E+00	3.078E-01	2.024E+00	-4.290E-01	1.867E+00	-3.611E-01	8.918E+01	1.676E+02	2.436E+02	7.092E+02
625.55	5.624E+00	5.668E+02	7.727E+00	1.738E+00	3.034E-01	2.044E+00	-4.431E-01	1.895E+00	-3.470E-01	8.616E+01	1.665E+02	2.364E+02	7.177E+02
625.60	5.581E+00	5.666E+02	7.726E+00	1.711E+00	2.993E-01	2.060E+00	-4.569E-01	1.923E+00	-3.336E-01	8.372E+01	1.653E+02	2.292E+02	7.312E+02
625.65	5.664E+00	5.665E+02	7.726E+00	1.680E+00	2.961E-01	2.074E+00	-4.706E-01	1.945E+00	-3.201E-01	8.214E+01	1.640E+02	2.225E+02	7.461E+02
625.70	5.662E+00	5.665E+02	7.726E+00	1.651E+00	2.942E-01	2.090E+00	-4.848E-01	1.958E+00	-3.059E-01	8.130E+01	1.624E+02	2.154E+02	7.586E+02
625.75	5.613E+00	5.666E+02	7.726E+00	1.624E+00	2.933E-01	2.111E+00	-5.000E-01	1.958E+00	-2.906E-01	7.923E+01	1.612E+02	2.083E+02	7.645E+02
625.80	5.540E+00	5.669E+02	7.726E+00	1.605E+00	2.929E-01	2.140E+00	-5.164E-01	1.948E+00	-2.739E-01	7.868E+01	1.600E+02	2.016E+02	7.607E+02
625.85	5.692E+00	5.671E+02	7.726E+00	1.595E+00	2.926E-01	2.174E+00	-5.338E-01	1.931E+00	-2.559E-01	7.868E+01	1.585E+02	1.950E+02	7.512E+02
625.90	5.799E+00	5.674E+02	7.727E+00	1.594E+00	2.919E-01	2.211E+00	-5.516E-01	1.912E+00	-2.366E-01	7.849E+01	1.574E+02	1.887E+02	7.401E+02
625.95	5.674E+00	5.675E+02	7.726E+00	1.601E+00	2.905E-01	2.248E+00	-5.695E-01	1.893E+00	-2.162E-01	7.896E+01	1.550E+02	1.817E+02	7.312E+02
626.00	5.592E+00	5.676E+02	7.726E+00	1.613E+00	2.877E-01	2.283E+00	-5.875E-01	1.874E+00	-1.952E-01	8.176E+01	1.525E+02	1.760E+02	7.243E+02
626.05	5.706E+00	5.675E+02	7.725E+00	1.628E+00	2.831E-01	2.315E+00	-6.055E-01	1.854E+00	-1.738E-01	8.253E+01	1.503E+02	1.704E+02	7.225E+02
626.10	5.865E+00	5.672E+02	7.725E+00	1.646E+00	2.759E-01	2.346E+00	-6.234E-01	1.830E+00	-1.524E-01	8.559E+01	1.467E+02	1.643E+02	7.263E+02
626.15	5.981E+00	5.670E+02	7.725E+00	1.668E+00	2.662E-01	2.380E+00	-6.404E-01	1.802E+00	-1.305E-01	8.698E+01	1.433E+02	1.587E+02	7.387E+02
626.20	5.931E+00	5.669E+02	7.727E+00	1.695E+00	2.541E-01	2.420E+00	-6.559E-01	1.774E+00	-1.084E-01	8.871E+01	1.393E+02	1.534E+02	7.570E+02
626.25	6.005E+00	5.670E+02	7.728E+00	1.728E+00	2.397E-01	2.466E+00	-6.697E-01	1.750E+00	-8.668E-02	8.856E+01	1.347E+02	1.476E+02	7.741E+02
626.30	6.051E+00	5.673E+02	7.729E+00	1.767E+00	2.229E-01	2.516E+00	-6.816E-01	1.733E+00	-6.583E-02	8.793E+01	1.304E+02	1.422E+02	7.815E+02
626.35	6.078E+00	5.678E+02	7.732E+00	1.811E+00	2.045E-01	2.564E+00	-6.910E-01	1.726E+00	-4.596E-02	8.666E+01	1.255E+02	1.367E+02	7.819E+02
626.40	6.024E+00	5.685E+02	7.734E+00	1.858E+00	1.850E-01	2.602E+00	-6.971E-01	1.728E+00	-2.692E-02	8.583E+01	1.202E+02	1.317E+02	7.780E+02
626.45	6.174E+00	5.692E+02	7.737E+00	1.907E+00	1.649E-01	2.628E+00	-7.001E-01	1.739E+00	-8.807E-03	8.630E+01	1.148E+02	1.271E+02	7.729E+02
626.50	6.244E+00	5.701E+02	7.740E+00	1.953E+00	1.448E-01	2.639E+00	-7.002E-01	1.757E+00	8.478E-03	8.762E+01	1.085E+02	1.225E+02	7.692E+02
626.55	6.139E+00	5.710E+02	7.742E+00	1.996E+00	1.246E-01	2.636E+00	-6.985E-01	1.780E+00	2.470E-02	8.860E+01	1.031E+02	1.182E+02	7.642E+02
626.60	6.033E+00	5.718E+02	7.744E+00	2.034E+00	1.047E-01	2.624E+00	-6.961E-01	1.806E+00	3.997E-02	9.085E+01	9.688E+01	1.138E+02	7.604E+02
626.65	6.200E+00	5.727E+02	7.745E+00	2.068E+00	8.470E-02	2.609E+00	-6.941E-01	1.834E+00	5.452E-02	9.324E+01	9.101E+01	1.097E+02	7.579E+02
626.70	6.403E+00	5.736E+02	7.748E+00	2.099E+00	6.467E-02	2.591E+00	-6.928E-01	1.859E+00	6.909E-02	9.563E+01	8.473E+01	1.057E+02	7.633E+02
626.75	6.528E+00	5.745E+02	7.752E+00	2.130E+00	4.449E-02	2.570E+00	-6.920E-01	1.876E+00	8.445E-02	9.730E+01	7.870E+01	1.024E+02	7.772E+02
626.80	6.768E+00	5.756E+02	7.755E+00	2.164E+00	2.366E-02	2.544E+00	-6.913E-01	1.883E+00	1.007E-01	9.882E+01	7.216E+01	9.932E+01	7.935E+02
626.85	6.817E+00	5.769E+02	7.758E+00	2.201E+00	1.923E-03	2.508E+00	-6.898E-01	1.877E+00	1.180E-01	9.920E+01	6.529E+01	9.635E+01	8.050E+02
626.90	6.840E+00	5.785E+02	7.762E+00	2.241E+00	-2.055E-02	2.462E+00	-6.866E-01	1.859E+00	1.361E-01	9.913E+01	5.931E+01	9.393E+01	8.087E+02
626.95	6.718E+00	5.802E+02	7.766E+00	2.280E+00	-4.285E-02	2.403E+00	-6.803E-01	1.833E+00	1.552E-01	9.862E+01	5.220E+01	9.127E+01	8.091E+02
627.00	6.486E+00	5.821E+02	7.770E+00	2.314E+00	-6.484E-02	2.333E+00	-6.709E-01	1.799E+00	1.749E-01	9.895E+01	4.474E+01	8.883E+01	8.057E+02
627.05	6.328E+00	5.841E+02	7.773E+00	2.343E+00	-8.704E-02	2.258E+00	-6.588E-01	1.760E+00	1.945E-01	9.955E+01	3.730E+01	8.685E+01	7.962E+02
627.10	6.310E+00	5.860E+02	7.775E+00	2.369E+00	-1.101E-01	2.184E+00	-6.449E-01	1.717E+00	2.132E-01	1.010E+02	3.018E+01	8.542E+01	7.814E+02
627.15	6.399E+00	5.878E+02	7.777E+00	2.393E+00	-1.338E-01	2.115E+00	-6.298E-01	1.671E+00	2.306E-01	1.028E+02	2.223E+01	8.426E+01	7.695E+02
627.20	6.443E+00	5.894E+02	7.778E+00	2.416E+00	-1.582E-01	2.055E+00	-6.137E-01	1.626E+00	2.463E-01	1.043E+02	1.418E+01	8.344E+01	7.632E+02
627.25	6.466E+00	5.908E+02	7.779E+00	2.438E+00	-1.830E-01	2.004E+00	-5.972E-01	1.584E+00	2.596E-01	1.052E+02	7.094E+00	8.278E+01	7.625E+02
627.30	6.501E+00	5.921E+02	7.780E+00	2.456E+00	-2.072E-01	1.959E+00	-5.807E-01	1.551E+00	2.701E-01	1.052E+02	-8.569E-01	8.199E+01	7.690E+02
627.35	6.348E+00	5.934E+02	7.782E+00	2.470E+00	-2.302E-01	1.918E+00	-5.642E-01	1.530E+00	2.782E-01	1.059E+02	-8.988E+00	8.140E+01	7.820E+02
627.40	6.297E+00	5.947E+02	7.783E+00	2.477E+00	-2.511E-01	1.880E+00	-5.479E-01	1.521E+00	2.844E-01	1.061E+02	-1.690E+01	8.113E+01	7.973E+02
627.45	6.360E+00	5.961E+02	7.784E+00	2.473E+00	-2.698E-01	1.850E+00	-5.331E-01	1.525E+00	2.890E-01	1.040E+02	-2.375E+01	8.145E+01	8.059E+02
627.50	6.490E+00	5.976E+02	7.785E+00	2.455E+00	-2.860E-01	1.834E+00	-5.205E-01	1.538E+00	2.923E-01	1.045E+02	-3.095E+01	8.213E+01	8.057E+02
627.55	6.396E+00	5.991E+02	7.788E+00	2.423E+00	-2.993E-01	1.837E+00	-5.098E-01	1.559E+00	2.954E-01	1.055E+02	-3.771E+01	8.310E+01	8.026E+02
627.60	6.470E+00	6.006E+02	7.789E+00	2.379E+00	-3.101E-01	1.861E+00	-5.009E-01	1.585E+00	2.987E-01	1.055E+02	-4.376E+01	8.427E+01	7.984E+02
627.65	6.374E+00	6.020E+02	7.790E+00	2.331E+00	-3.197E-01	1.901E+00	-4.936E-01	1.617E+00	3.017E-01	1.071E+02	-5.078E+01	8.575E+01	7.925E+02
627.70	6.372E+00	6.034E+02	7.791E+00	2.284E+00	-3.293E-01	1.949E+00	-4.869E-01	1.654E+00	3.044E-01	1.068E+02	-5.723E+01	8.781E+01	7.862E+02
627.75	6.322E+00	6.046E+02	7.791E+00	2.243E+00	-3.400E-01	1.995E+00	-4.801E-01	1.697E+00	3.063E-01	1.043E+02	-6.303E+01	9.022E+01	7.794E+02
627.80	6.216E+00	6.056E+02	7.791E+00	2.211E+00	-3.527E-01	2.033E+00	-4.724E-01	1.740E+00	3.072E-01	1.018E+02	-6.896E+01	9.291E+01	7.757E+02
627.85	6.081E+00	6.066E+02	7.792E+00	2.190E+00	-3.673E-01	2.060E+00	-4.633E-01	1.779E+00	3.077E-01	9.902E+01	-7.553E+01	9.599E+01	7.805E+02
627.90	6.147E+00	6.074E+02	7.793E+00	2.181E+00	-3.837E-01	2.078E+00	-4.523E-01	1.807E+00	3.083E-01	9.555E+01	-8.168E+01	9.894E+01	7.921E+02
627.95	6.055E+00	6.083E+02	7.795E+00	2.180E+00	-4.016E-01	2.092E+00	-4.397E-01	1.821E+00	3.094E-01	9.298E+01	-8.813E+01	1.018E+02	8.067E+02
628.00	5.985E+00	6.093E+02	7.796E+00	2.185E+00	-4.201E-01	2.105E+00	-4.257E-01	1.821E+00	3.110E-01	9.232E+01	-9.509E+01	1.053E+02	8.200E+02
628.05	6.212E+00	6.104E+02	7.798E+00	2.191E+00	-4.384E-01	2.120E+00	-4.103E-01	1.811E+00	3.129E-01	9.204E+01	-1.014E+02	1.090E+02	8.264E+02
628.10	6.445E+00	6.117E+02	7.799E+00	2.195E+00	-4.563E-01	2.135E+00	-3.936E-01	1.796E+00	3.141E-01	9.422E+01	-1.075E+02	1.129E+02	8.243E+02
628.15	6.637E+00	6.130E+02	7.801E+00	2.199E+00	-4.732E-01	2.147E+00	-3.754E-01	1.782E+00	3.144E-01	9.785E+01	-1.138E+02	1.174E+02	8.169E+02
628.20	6.568E+00	6.142E+02	7.802E+00	2.203E+00	-4.894E-01	2.150E+00	-3.554E-01	1.770E+00	3.131E-01	1.031E+02	-1.200E+02	1.222E+02	8.061E+02
628.25	6.504E+00	6.153E+02	7.802E+00	2.214E+00	-5.053E-01	2.140E+00	-3.336E-01	1.759E+00	3.102E-01	1.071E+02	-1.256E+02	1.267E+02	7.948E+02
628.30	6.511E+00	6.163E+02	7.802E+00	2.236E+00	-5.213E-01	2.114E+00	-3.103E-01	1.747E+00	3.057E-01	1.089E+02	-1.309E+02	1.315E+02	7.860E+02
628.35	6.654E+00	6.170E+02	7.802E+00	2.269E+00	-5.381E-01	2.075E+00	-2.863E-01	1.732E+00	2.999E-01	1.105E+02	-1.362E+02	1.361E+02	7.823E+02
628.40	6.760E+00	6.176E+02	7.803E+00	2.311E+00	-5.552E-01	2.031E+00	-2.620E-01	1.717E+00	2.930E-01	1.106E+02	-1.413E+02	1.407E+02	7.888E+02
628.45	6.705E+00	6.182E+02	7.804E+00	2.355E+00	-5.720E-01	1.989E+00	-2.384E-01	1.706E+00	2.853E-01	1.110E+02	-1.462E+02	1.457E+02	8.045E+02
628.50	6.574E+00	6.189E+02	7.805E+00	2.396E+00	-5.883E-01	1.953E+00	-2.161E-01	1.704E+00	2.767E-01	1.122E+02	-1.509E+02	1.509E+02	8.229E+02
628.55	6.518E+00	6.197E+02	7.806E+00	2.434E+00	-6.040E-01	1.925E+00	-1.955E-01	1.714E+00	2.669E-01	1.144E+02	-1.551E+02	1.564E+02	8.352E+02
628.60	6.318E+00	6.206E+02	7.808E+00	2.467E+00	-6.187E-01	1.902E+00	-1.761E-01	1.737E+00	2.564E-01	1.192E+02	-1.594E+02	1.624E+02	8.400E+02
628.65	6.411E+00	6.218E+02	7.811E+00	2.494E+00	-6.313E-01	1.883E+00	-1.571E-01	1.769E+00	2.461E-01	1.200E+02	-1.626E+02	1.691E+02	8.424E+02
628.70	6.564E+00	6.230E+02	7.813E+00	2.514E+00	-6.416E-01	1.864E+00	-1.383E-01	1.807E+00	2.357E-01	1.232E+02	-1.667E+02	1.742E+02	8.386E+02
628.75	6.556E+00	6.243E+02	7.815E+00	2.526E+00	-6.498E-01	1.847E+00	-1.198E-01	1.847E+00	2.255E-01	1.248E+02	-1.702E+02	1.807E+02	8.324E+02
628.80	6.663E+00	6.255E+02	7.816E+00	2.529E+00	-6.563E-01	1.832E+00	-1.018E-01	1.884E+00	2.149E-01	1.243E+02	-1.731E+02	1.875E+02	8.227E+02
628.85	6.721E+00	6.266E+02	7.817E+00	2.526E+00	-6.621E-01	1.822E+00	-8.435E-02	1.918E+00	2.032E-01	1.239E+02	-1.755E+02	1.930E+02	8.108E+02
628.90	6.810E+00	6.276E+02	7.818E+00	2.520E+00	-6.678E-01	1.817E+00	-6.751E-02	1.948E+00	1.906E-01	1.233E+02	-1.775E+02	1.996E+02	8.043E+02
628.95	6.698E+00	6.285E+02	7.821E+00	2.513E+00	-6.730E-01	1.820E+00	-5.070E-02	1.974E+00	1.775E-01	1.255E+02	-1.802E+02	2.071E+02	8.125E+02
629.00	6.516E+00	6.294E+02	7.822E+00	2.503E+00	-6.777E-01	1.831E+00	-3.347E-02	1.999E+00	1.634E-01	1.203E+02	-1.813E+02	2.143E+02	8.280E+02
629.05	6.555E+00	6.303E+02	7.823E+00	2.489E+00	-6.822E-01	1.849E+00	-1.667E-02	2.022E+00	1.475E-01	1.222E+02	-1.839E+02	2.193E+02	8.399E+02
629.10	6.511E+00	6.314E+02	7.825E+00	2.472E+00	-6.865E-01	1.869E+00	-1.917E-04	2.043E+00	1.302E-01	1.198E+02	-1.844E+02	2.286E+02	8.486E+02
629.15	6.415E+00	6.327E+02	7.828E+00	2.453E+00	-6.901E-01	1.888E+00	1.701E-02	2.061E+00	1.115E-01	1.221E+02	-1.861E+02	2.348E+02	8.528E+02
629.20	6.407E+00	6.340E+02	7.832E+00	2.436E+00	-6.926E-01	1.900E+00	3.579E-02	2.073E+00	9.285E-02	1.216E+02	-1.867E+02	2.417E+02	8.593E+02
629.25	6.334E+00	6.355E+02	7.835E+00	2.422E+00	-6.941E-01	1.904E+00	5.586E-02	2.079E+00	7.452E-02	1.234E+02	-1.877E+02	2.496E+02	8.638E+02
629.30	6.329E+00	6.372E+02	7.837E+00	2.412E+00	-6.944E-01	1.900E+00	7.687E-02	2.078E+00	5.631E-02	1.237E+02	-1.880E+02	2.568E+02	8.615E+02
629.35	6.287E+00	6.389E+02	7.839E+00	2.405E+00	-6.934E-01	1.890E+00	9.784E-02	2.074E+00	3.781E-02	1.215E+02	-1.875E+02	2.630E+02	8.516E+02
629.40	6.016E+00	6.405E+02	7.841E+00	2.398E+00	-6.910E-01	1.877E+00	1.177E-01	2.070E+00	1.873E-02	1.199E+02	-1.868E+02	2.700E+02	8.405E+02
629.45	5.859E+00	6.420E+02	7.844E+00	2.390E+00	-6.872E-01	1.865E+00	1.359E-01	2.073E+00	-1.118E-03	1.205E+02	-1.860E+02	2.775E+02	8.361E+02
629.50	5.896E+00	6.434E+02	7.846E+00	2.382E+00	-6.818E-01	1.854E+00	1.526E-01	2.084E+00	-2.211E-02	1.192E+02	-1.846E+02	2.847E+02	8.384E+02
629.55	5.890E+00	6.448E+02	7.847E+00	2.373E+00	-6.752E-01	1.841E+00	1.678E-01	2.104E+00	-4.456E-02	1.182E+02	-1.831E+02	2.911E+02	8.439E+02
629.60	5.963E+00	6.462E+02	7.849E+00	2.360E+00	-6.670E-01	1.824E+00	1.819E-01	2.135E+00	-6.824E-02	1.178E+02	-1.811E+02	2.981E+02	8.505E+02
629.65	6.047E+00	6.476E+02	7.851E+00	2.338E+00	-6.570E-01	1.799E+00	1.953E-01	2.174E+00	-9.278E-02	1.192E+02	-1.789E+02	3.051E+02	8.580E+02
629.70	6.245E+00	6.491E+02	7.854E+00	2.306E+00	-6.446E-01	1.769E+00	2.085E-01	2.223E+00	-1.176E-01	1.183E+02	-1.759E+02	3.120E+02	8.661E+02
629.75	6.129E+00	6.506E+02	7.856E+00	2.267E+00	-6.306E-01	1.738E+00	2.209E-01	2.277E+00	-1.425E-01	1.184E+02	-1.733E+02	3.185E+02	8.717E+02
629.80	6.059E+00	6.523E+02	7.857E+00	2.225E+00	-6.161E-01	1.712E+00	2.319E-01	2.336E+00	-1.675E-01	1.188E+02	-1.701E+02	3.260E+02	8.711E+02
629.85	6.058E+00	6.540E+02	7.859E+00	2.184E+00	-6.020E-01	1.696E+00	2.412E-01	2.396E+00	-1.926E-01	1.174E+02	-1.666E+02	3.325E+02	8.643E+02
629.90	5.985E+00	6.556E+02	7.862E+00	2.148E+00	-5.880E-01	1.695E+00	2.494E-01	2.457E+00	-2.173E-01	1.152E+02	-1.631E+02	3.388E+02	8.601E+02
629.95	6.122E+00	6.571E+02	7.864E+00	2.116E+00	-5.744E-01	1.707E+00	2.570E-01	2.516E+00	-2.412E-01	1.115E+02	-1.588E+02	3.457E+02	8.612E+02
630.00	6.159E+00	6.587E+02	7.866E+00	2.092E+00	-5.615E-01	1.729E+00	2.641E-01	2.570E+00	-2.645E-01	1.088E+02	-1.549E+02	3.517E+02	8.644E+02
