
"These predictions were generated by FAST (v6.10a-jmj, 21-Feb-2007) on 01-Apr-2007 at 16:57:32."
"The aerodynamic calculations were made by AeroDyn (12.60i-pjm, 16-Nov-2006)."

 NREL 5.0 MW Baseline Wind Turbine for Use in Offshore Analysis.

    Time	WindVxi	GenPwr	RotSpeed	OoPDefl1	IPDefl1	OoPDefl2	IPDefl2	OoPDefl3	IPDefl3	RootFxc1	RootFyc1	RootFzc1	RotTorq
   (sec)	(m/sec)	(kW)	(rpm)	(m)	(m)	(m)	(m)	(m)	(m)	(kN)	(kN)	(kN)	(kN·m)
30.00	1.790E+01	5.050E+03	1.230E+01	3.500E+00	-1.190E+00	1.340E+00	-7.490E-01	1.700E+00	-3.750E-02	2.250E+02	-8.990E+01	4.550E+02	4.350E+03
30.05	1.830E+01	5.050E+03	1.230E+01	3.410E+00	-1.170E+00	1.260E+00	-7.040E-01	1.860E+00	-8.350E-02	2.240E+02	-9.810E+01	4.550E+02	4.270E+03
30.10	1.810E+01	5.050E+03	1.230E+01	3.320E+00	-1.140E+00	1.170E+00	-6.540E-01	2.070E+00	-1.460E-01	2.140E+02	-1.050E+02	4.570E+02	4.200E+03
30.15	1.820E+01	5.050E+03	1.230E+01	3.230E+00	-1.120E+00	1.070E+00	-6.000E-01	2.310E+00	-2.240E-01	2.040E+02	-1.090E+02	4.600E+02	4.130E+03
30.20	1.890E+01	5.040E+03	1.230E+01	3.150E+00	-1.100E+00	9.600E-01	-5.420E-01	2.550E+00	-3.080E-01	2.000E+02	-1.140E+02	4.660E+02	4.090E+03
30.25	1.840E+01	5.040E+03	1.230E+01	3.060E+00	-1.090E+00	8.510E-01	-4.830E-01	2.750E+00	-3.830E-01	1.950E+02	-1.200E+02	4.760E+02	4.120E+03
30.30	1.910E+01	5.040E+03	1.230E+01	2.970E+00	-1.080E+00	7.580E-01	-4.260E-01	2.880E+00	-4.400E-01	1.950E+02	-1.280E+02	4.840E+02	4.190E+03
30.35	1.930E+01	5.040E+03	1.230E+01	2.880E+00	-1.070E+00	6.950E-01	-3.760E-01	2.950E+00	-4.790E-01	1.940E+02	-1.360E+02	4.920E+02	4.290E+03
30.40	1.890E+01	5.040E+03	1.240E+01	2.780E+00	-1.070E+00	6.670E-01	-3.370E-01	3.000E+00	-5.080E-01	1.930E+02	-1.450E+02	4.990E+02	4.370E+03
30.45	1.910E+01	5.050E+03	1.240E+01	2.690E+00	-1.070E+00	6.680E-01	-3.070E-01	3.030E+00	-5.330E-01	1.910E+02	-1.540E+02	5.070E+02	4.380E+03
30.50	1.930E+01	5.050E+03	1.240E+01	2.630E+00	-1.090E+00	6.850E-01	-2.800E-01	3.080E+00	-5.580E-01	1.830E+02	-1.590E+02	5.150E+02	4.360E+03
30.55	1.910E+01	5.060E+03	1.240E+01	2.590E+00	-1.110E+00	7.060E-01	-2.510E-01	3.120E+00	-5.800E-01	1.730E+02	-1.660E+02	5.240E+02	4.330E+03
30.60	1.920E+01	5.060E+03	1.240E+01	2.570E+00	-1.130E+00	7.250E-01	-2.230E-01	3.170E+00	-5.980E-01	1.630E+02	-1.710E+02	5.350E+02	4.260E+03
30.65	1.940E+01	5.060E+03	1.240E+01	2.530E+00	-1.150E+00	7.390E-01	-1.990E-01	3.200E+00	-6.160E-01	1.600E+02	-1.780E+02	5.440E+02	4.160E+03
30.70	1.950E+01	5.050E+03	1.240E+01	2.460E+00	-1.150E+00	7.460E-01	-1.750E-01	3.240E+00	-6.350E-01	1.600E+02	-1.850E+02	5.540E+02	4.090E+03
30.75	1.880E+01	5.050E+03	1.240E+01	2.360E+00	-1.140E+00	7.450E-01	-1.500E-01	3.300E+00	-6.570E-01	1.630E+02	-1.940E+02	5.640E+02	4.100E+03
30.80	1.930E+01	5.050E+03	1.240E+01	2.270E+00	-1.120E+00	7.380E-01	-1.230E-01	3.360E+00	-6.810E-01	1.700E+02	-2.040E+02	5.750E+02	4.150E+03
30.85	1.940E+01	5.050E+03	1.240E+01	2.200E+00	-1.100E+00	7.360E-01	-9.790E-02	3.410E+00	-7.100E-01	1.680E+02	-2.090E+02	5.870E+02	4.210E+03
30.90	1.890E+01	5.050E+03	1.240E+01	2.140E+00	-1.080E+00	7.440E-01	-7.970E-02	3.460E+00	-7.460E-01	1.560E+02	-2.060E+02	5.960E+02	4.220E+03
30.95	1.900E+01	5.050E+03	1.250E+01	2.090E+00	-1.070E+00	7.630E-01	-6.990E-02	3.500E+00	-7.860E-01	1.540E+02	-2.080E+02	6.050E+02	4.190E+03
31.00	1.900E+01	5.050E+03	1.250E+01	2.030E+00	-1.060E+00	7.880E-01	-6.330E-02	3.510E+00	-8.230E-01	1.430E+02	-2.020E+02	6.220E+02	4.160E+03
31.05	1.940E+01	5.050E+03	1.250E+01	1.980E+00	-1.040E+00	8.120E-01	-5.410E-02	3.500E+00	-8.540E-01	1.320E+02	-2.000E+02	6.290E+02	4.140E+03
31.10	1.950E+01	5.040E+03	1.250E+01	1.940E+00	-1.020E+00	8.310E-01	-3.910E-02	3.480E+00	-8.780E-01	1.320E+02	-2.020E+02	6.400E+02	4.140E+03
31.15	1.990E+01	5.040E+03	1.250E+01	1.880E+00	-9.900E-01	8.470E-01	-1.850E-02	3.450E+00	-8.980E-01	1.360E+02	-2.030E+02	6.580E+02	4.140E+03
31.20	1.970E+01	5.040E+03	1.250E+01	1.790E+00	-9.580E-01	8.680E-01	2.050E-03	3.420E+00	-9.180E-01	1.420E+02	-2.050E+02	6.690E+02	4.100E+03
31.25	1.960E+01	5.040E+03	1.250E+01	1.680E+00	-9.240E-01	9.000E-01	1.780E-02	3.390E+00	-9.400E-01	1.490E+02	-2.080E+02	6.800E+02	4.050E+03
31.30	1.970E+01	5.030E+03	1.250E+01	1.550E+00	-8.920E-01	9.460E-01	2.720E-02	3.360E+00	-9.600E-01	1.580E+02	-2.070E+02	6.950E+02	4.000E+03
31.35	1.930E+01	5.030E+03	1.250E+01	1.420E+00	-8.610E-01	1.000E+00	3.190E-02	3.300E+00	-9.710E-01	1.570E+02	-2.070E+02	7.050E+02	3.990E+03
31.40	1.930E+01	5.020E+03	1.250E+01	1.300E+00	-8.320E-01	1.070E+00	3.260E-02	3.200E+00	-9.670E-01	1.520E+02	-2.100E+02	7.110E+02	4.010E+03
31.45	1.900E+01	5.020E+03	1.250E+01	1.180E+00	-8.060E-01	1.160E+00	3.010E-02	3.060E+00	-9.510E-01	1.440E+02	-2.050E+02	7.240E+02	4.030E+03
31.50	1.940E+01	5.010E+03	1.250E+01	1.060E+00	-7.760E-01	1.240E+00	2.660E-02	2.920E+00	-9.310E-01	1.300E+02	-1.990E+02	7.330E+02	4.040E+03
31.55	1.930E+01	5.010E+03	1.250E+01	9.320E-01	-7.370E-01	1.320E+00	2.250E-02	2.790E+00	-9.160E-01	1.090E+02	-1.910E+02	7.380E+02	4.040E+03
31.60	1.930E+01	5.010E+03	1.240E+01	7.880E-01	-6.880E-01	1.400E+00	1.430E-02	2.690E+00	-9.080E-01	1.030E+02	-1.840E+02	7.470E+02	4.050E+03
31.65	1.890E+01	5.010E+03	1.240E+01	6.300E-01	-6.250E-01	1.470E+00	-1.450E-03	2.610E+00	-9.070E-01	9.400E+01	-1.750E+02	7.570E+02	4.060E+03
31.70	1.890E+01	5.010E+03	1.240E+01	4.670E-01	-5.530E-01	1.570E+00	-3.110E-02	2.560E+00	-9.140E-01	8.360E+01	-1.680E+02	7.630E+02	4.040E+03
31.75	1.860E+01	5.010E+03	1.240E+01	3.040E-01	-4.740E-01	1.690E+00	-7.660E-02	2.520E+00	-9.270E-01	8.450E+01	-1.580E+02	7.720E+02	4.010E+03
31.80	1.930E+01	5.000E+03	1.240E+01	1.540E-01	-3.890E-01	1.850E+00	-1.330E-01	2.480E+00	-9.450E-01	8.640E+01	-1.470E+02	7.820E+02	3.990E+03
31.85	1.890E+01	5.000E+03	1.240E+01	3.770E-02	-3.050E-01	2.030E+00	-1.960E-01	2.450E+00	-9.670E-01	8.750E+01	-1.360E+02	7.870E+02	3.970E+03
31.90	1.850E+01	5.000E+03	1.240E+01	-3.250E-02	-2.290E-01	2.190E+00	-2.570E-01	2.420E+00	-9.940E-01	8.390E+01	-1.210E+02	7.910E+02	3.980E+03
31.95	1.830E+01	4.990E+03	1.240E+01	-5.620E-02	-1.650E-01	2.320E+00	-3.130E-01	2.400E+00	-1.020E+00	7.960E+01	-1.050E+02	7.960E+02	4.010E+03
32.00	1.840E+01	4.990E+03	1.240E+01	-4.230E-02	-1.170E-01	2.430E+00	-3.630E-01	2.360E+00	-1.040E+00	7.770E+01	-8.950E+01	8.020E+02	4.050E+03
32.05	1.760E+01	4.990E+03	1.240E+01	-6.740E-03	-8.130E-02	2.510E+00	-4.120E-01	2.310E+00	-1.060E+00	7.690E+01	-7.530E+01	8.090E+02	4.090E+03
32.10	1.750E+01	4.990E+03	1.240E+01	3.750E-02	-5.380E-02	2.590E+00	-4.590E-01	2.270E+00	-1.070E+00	7.810E+01	-6.290E+01	8.170E+02	4.130E+03
32.15	1.770E+01	5.000E+03	1.240E+01	8.230E-02	-3.180E-02	2.690E+00	-5.040E-01	2.240E+00	-1.070E+00	8.360E+01	-5.250E+01	8.240E+02	4.160E+03
32.20	1.730E+01	5.000E+03	1.240E+01	1.270E-01	-1.670E-02	2.800E+00	-5.490E-01	2.210E+00	-1.080E+00	9.420E+01	-4.230E+01	8.280E+02	4.150E+03
32.25	1.760E+01	5.000E+03	1.240E+01	1.740E-01	-1.020E-02	2.910E+00	-5.950E-01	2.170E+00	-1.080E+00	1.060E+02	-3.660E+01	8.290E+02	4.120E+03
32.30	1.760E+01	5.000E+03	1.240E+01	2.200E-01	-1.340E-02	3.020E+00	-6.380E-01	2.110E+00	-1.060E+00	1.120E+02	-3.140E+01	8.290E+02	4.080E+03
32.35	1.770E+01	5.000E+03	1.240E+01	2.570E-01	-2.550E-02	3.110E+00	-6.760E-01	2.030E+00	-1.040E+00	1.140E+02	-2.270E+01	8.300E+02	4.050E+03
32.40	1.750E+01	5.000E+03	1.240E+01	2.800E-01	-3.890E-02	3.180E+00	-7.080E-01	1.920E+00	-1.010E+00	1.120E+02	-1.500E+01	8.320E+02	4.040E+03
32.45	1.780E+01	5.000E+03	1.240E+01	3.000E-01	-4.730E-02	3.240E+00	-7.340E-01	1.800E+00	-9.760E-01	1.080E+02	-9.000E+00	8.320E+02	4.070E+03
32.50	1.790E+01	5.000E+03	1.240E+01	3.290E-01	-5.010E-02	3.290E+00	-7.570E-01	1.670E+00	-9.380E-01	1.020E+02	-2.070E+00	8.290E+02	4.100E+03
32.55	1.750E+01	5.000E+03	1.240E+01	3.680E-01	-4.770E-02	3.340E+00	-7.850E-01	1.540E+00	-9.050E-01	9.220E+01	8.200E+00	8.230E+02	4.090E+03
32.60	1.730E+01	5.000E+03	1.240E+01	3.990E-01	-3.760E-02	3.380E+00	-8.200E-01	1.430E+00	-8.810E-01	8.840E+01	1.880E+01	8.160E+02	4.030E+03
32.65	1.710E+01	5.000E+03	1.240E+01	4.110E-01	-1.420E-02	3.390E+00	-8.530E-01	1.300E+00	-8.540E-01	8.820E+01	3.160E+01	8.100E+02	4.010E+03
32.70	1.770E+01	5.000E+03	1.240E+01	4.060E-01	2.440E-02	3.390E+00	-8.810E-01	1.170E+00	-8.200E-01	9.720E+01	4.000E+01	8.050E+02	4.040E+03
32.75	1.750E+01	5.000E+03	1.240E+01	4.030E-01	7.220E-02	3.390E+00	-9.070E-01	1.040E+00	-7.810E-01	1.070E+02	4.740E+01	8.020E+02	4.110E+03
32.80	1.720E+01	5.000E+03	1.240E+01	4.270E-01	1.170E-01	3.390E+00	-9.390E-01	9.110E-01	-7.430E-01	1.140E+02	5.610E+01	7.970E+02	4.120E+03
32.85	1.720E+01	5.000E+03	1.240E+01	4.840E-01	1.510E-01	3.390E+00	-9.750E-01	7.980E-01	-7.130E-01	1.180E+02	6.950E+01	7.890E+02	4.040E+03
32.90	1.760E+01	5.000E+03	1.240E+01	5.670E-01	1.750E-01	3.350E+00	-1.010E+00	7.100E-01	-6.920E-01	1.220E+02	8.330E+01	7.810E+02	3.930E+03
32.95	1.730E+01	4.990E+03	1.240E+01	6.650E-01	1.880E-01	3.280E+00	-1.040E+00	6.390E-01	-6.740E-01	1.230E+02	9.350E+01	7.720E+02	3.880E+03
33.00	1.680E+01	4.980E+03	1.240E+01	7.700E-01	1.890E-01	3.160E+00	-1.040E+00	5.800E-01	-6.570E-01	1.240E+02	1.020E+02	7.620E+02	3.900E+03
33.05	1.650E+01	4.980E+03	1.240E+01	8.740E-01	1.760E-01	3.010E+00	-1.040E+00	5.330E-01	-6.410E-01	1.260E+02	1.090E+02	7.580E+02	3.930E+03
33.10	1.670E+01	4.980E+03	1.240E+01	9.710E-01	1.510E-01	2.850E+00	-1.020E+00	4.820E-01	-6.230E-01	1.260E+02	1.170E+02	7.510E+02	3.940E+03
33.15	1.680E+01	4.970E+03	1.230E+01	1.060E+00	1.200E-01	2.700E+00	-9.970E-01	4.110E-01	-5.970E-01	1.310E+02	1.210E+02	7.390E+02	3.950E+03
33.20	1.710E+01	4.970E+03	1.230E+01	1.120E+00	8.910E-02	2.570E+00	-9.750E-01	3.300E-01	-5.570E-01	1.420E+02	1.190E+02	7.310E+02	3.990E+03
33.25	1.690E+01	4.970E+03	1.230E+01	1.170E+00	5.930E-02	2.470E+00	-9.550E-01	2.390E-01	-5.050E-01	1.540E+02	1.120E+02	7.210E+02	4.040E+03
33.30	1.710E+01	4.970E+03	1.230E+01	1.220E+00	2.480E-02	2.400E+00	-9.380E-01	1.350E-01	-4.480E-01	1.610E+02	1.040E+02	7.050E+02	4.060E+03
33.35	1.720E+01	4.970E+03	1.230E+01	1.260E+00	-1.770E-02	2.330E+00	-9.260E-01	1.210E-02	-3.860E-01	1.650E+02	1.020E+02	6.930E+02	3.990E+03
33.40	1.730E+01	4.970E+03	1.230E+01	1.300E+00	-6.190E-02	2.250E+00	-9.120E-01	-1.270E-01	-3.170E-01	1.680E+02	1.020E+02	6.810E+02	3.910E+03
33.45	1.750E+01	4.960E+03	1.230E+01	1.350E+00	-9.960E-02	2.150E+00	-8.880E-01	-2.620E-01	-2.430E-01	1.680E+02	9.910E+01	6.680E+02	3.880E+03
33.50	1.740E+01	4.960E+03	1.230E+01	1.410E+00	-1.280E-01	2.030E+00	-8.580E-01	-3.670E-01	-1.700E-01	1.680E+02	9.730E+01	6.550E+02	3.890E+03
33.55	1.750E+01	4.950E+03	1.220E+01	1.470E+00	-1.510E-01	1.910E+00	-8.330E-01	-4.240E-01	-1.090E-01	1.650E+02	9.310E+01	6.390E+02	3.890E+03
33.60	1.710E+01	4.950E+03	1.220E+01	1.550E+00	-1.750E-01	1.800E+00	-8.250E-01	-4.230E-01	-7.080E-02	1.680E+02	9.020E+01	6.240E+02	3.840E+03
33.65	1.700E+01	4.940E+03	1.220E+01	1.620E+00	-1.990E-01	1.720E+00	-8.370E-01	-3.680E-01	-5.390E-02	1.780E+02	8.770E+01	6.130E+02	3.800E+03
33.70	1.740E+01	4.940E+03	1.220E+01	1.700E+00	-2.210E-01	1.660E+00	-8.620E-01	-2.780E-01	-5.200E-02	1.840E+02	8.720E+01	6.010E+02	3.820E+03
33.75	1.750E+01	4.930E+03	1.220E+01	1.790E+00	-2.440E-01	1.620E+00	-8.910E-01	-1.680E-01	-5.980E-02	1.890E+02	8.720E+01	5.870E+02	3.880E+03
33.80	1.720E+01	4.930E+03	1.210E+01	1.890E+00	-2.670E-01	1.590E+00	-9.200E-01	-5.100E-02	-7.090E-02	2.010E+02	8.310E+01	5.750E+02	3.950E+03
33.85	1.650E+01	4.930E+03	1.210E+01	2.010E+00	-2.910E-01	1.570E+00	-9.460E-01	5.660E-02	-8.040E-02	2.020E+02	8.700E+01	5.650E+02	4.010E+03
33.90	1.620E+01	4.930E+03	1.210E+01	2.140E+00	-3.170E-01	1.560E+00	-9.660E-01	1.550E-01	-8.930E-02	2.050E+02	8.210E+01	5.490E+02	4.050E+03
33.95	1.680E+01	4.930E+03	1.210E+01	2.270E+00	-3.490E-01	1.530E+00	-9.710E-01	2.550E-01	-9.800E-02	2.080E+02	7.940E+01	5.390E+02	4.110E+03
34.00	1.710E+01	4.940E+03	1.210E+01	2.420E+00	-3.890E-01	1.500E+00	-9.650E-01	3.560E-01	-1.090E-01	2.100E+02	7.900E+01	5.320E+02	4.150E+03
34.05	1.630E+01	4.940E+03	1.210E+01	2.570E+00	-4.420E-01	1.470E+00	-9.510E-01	4.590E-01	-1.230E-01	2.080E+02	7.260E+01	5.200E+02	4.170E+03
34.10	1.590E+01	4.950E+03	1.210E+01	2.730E+00	-5.090E-01	1.440E+00	-9.320E-01	5.710E-01	-1.400E-01	2.100E+02	6.680E+01	5.120E+02	4.120E+03
34.15	1.610E+01	4.950E+03	1.210E+01	2.890E+00	-5.860E-01	1.410E+00	-9.070E-01	6.920E-01	-1.560E-01	2.160E+02	6.170E+01	5.070E+02	4.050E+03
34.20	1.650E+01	4.950E+03	1.210E+01	3.040E+00	-6.680E-01	1.370E+00	-8.770E-01	8.060E-01	-1.630E-01	2.160E+02	4.820E+01	4.960E+02	4.000E+03
34.25	1.660E+01	4.950E+03	1.210E+01	3.170E+00	-7.530E-01	1.320E+00	-8.460E-01	8.960E-01	-1.570E-01	2.220E+02	3.520E+01	4.880E+02	3.970E+03
34.30	1.600E+01	4.950E+03	1.210E+01	3.280E+00	-8.370E-01	1.260E+00	-8.120E-01	9.510E-01	-1.360E-01	2.330E+02	2.340E+01	4.830E+02	4.010E+03
34.35	1.560E+01	4.950E+03	1.210E+01	3.360E+00	-9.120E-01	1.200E+00	-7.780E-01	9.720E-01	-9.910E-02	2.370E+02	8.640E+00	4.740E+02	4.140E+03
34.40	1.460E+01	4.950E+03	1.210E+01	3.420E+00	-9.790E-01	1.130E+00	-7.480E-01	9.740E-01	-5.560E-02	2.390E+02	-6.760E+00	4.660E+02	4.250E+03
34.45	1.500E+01	4.960E+03	1.210E+01	3.460E+00	-1.040E+00	1.060E+00	-7.220E-01	9.730E-01	-1.660E-02	2.380E+02	-1.320E+01	4.590E+02	4.280E+03
34.50	1.530E+01	4.970E+03	1.210E+01	3.490E+00	-1.090E+00	9.630E-01	-6.970E-01	9.930E-01	1.220E-02	2.310E+02	-2.190E+01	4.500E+02	4.250E+03
34.55	1.550E+01	4.970E+03	1.210E+01	3.480E+00	-1.110E+00	8.590E-01	-6.710E-01	1.040E+00	2.880E-02	2.170E+02	-3.220E+01	4.420E+02	4.200E+03
34.60	1.600E+01	4.970E+03	1.210E+01	3.420E+00	-1.110E+00	7.550E-01	-6.450E-01	1.120E+00	3.000E-02	2.090E+02	-3.840E+01	4.380E+02	4.120E+03
34.65	1.640E+01	4.970E+03	1.200E+01	3.340E+00	-1.100E+00	6.520E-01	-6.230E-01	1.210E+00	1.870E-02	1.950E+02	-4.250E+01	4.340E+02	4.060E+03
34.70	1.660E+01	4.970E+03	1.200E+01	3.230E+00	-1.070E+00	5.450E-01	-6.020E-01	1.300E+00	-5.480E-04	1.850E+02	-4.950E+01	4.310E+02	4.010E+03
34.75	1.660E+01	4.960E+03	1.200E+01	3.100E+00	-1.030E+00	4.390E-01	-5.810E-01	1.360E+00	-2.530E-02	1.770E+02	-5.210E+01	4.300E+02	3.970E+03
34.80	1.660E+01	4.960E+03	1.200E+01	2.980E+00	-9.950E-01	3.330E-01	-5.560E-01	1.400E+00	-4.950E-02	1.770E+02	-5.690E+01	4.300E+02	3.970E+03
34.85	1.660E+01	4.960E+03	1.200E+01	2.880E+00	-9.620E-01	2.220E-01	-5.200E-01	1.430E+00	-6.790E-02	1.740E+02	-6.570E+01	4.310E+02	4.050E+03
34.90	1.660E+01	4.960E+03	1.200E+01	2.780E+00	-9.350E-01	1.130E-01	-4.760E-01	1.460E+00	-8.340E-02	1.730E+02	-7.390E+01	4.340E+02	4.140E+03
34.95	1.620E+01	4.960E+03	1.200E+01	2.700E+00	-9.220E-01	9.990E-03	-4.270E-01	1.480E+00	-9.830E-02	1.700E+02	-8.230E+01	4.370E+02	4.200E+03
35.00	1.640E+01	4.960E+03	1.200E+01	2.640E+00	-9.260E-01	-8.070E-02	-3.770E-01	1.520E+00	-1.150E-01	1.690E+02	-9.130E+01	4.410E+02	4.200E+03
35.05	1.640E+01	4.960E+03	1.200E+01	2.590E+00	-9.410E-01	-1.490E-01	-3.270E-01	1.570E+00	-1.340E-01	1.650E+02	-1.000E+02	4.450E+02	4.160E+03
35.10	1.660E+01	4.970E+03	1.200E+01	2.530E+00	-9.600E-01	-1.830E-01	-2.790E-01	1.620E+00	-1.530E-01	1.600E+02	-1.090E+02	4.480E+02	4.110E+03
35.15	1.660E+01	4.960E+03	1.200E+01	2.460E+00	-9.770E-01	-1.710E-01	-2.360E-01	1.690E+00	-1.680E-01	1.560E+02	-1.210E+02	4.510E+02	4.080E+03
35.20	1.630E+01	4.960E+03	1.190E+01	2.370E+00	-9.910E-01	-1.130E-01	-2.030E-01	1.770E+00	-1.810E-01	1.510E+02	-1.340E+02	4.550E+02	4.040E+03
35.25	1.630E+01	4.960E+03	1.190E+01	2.280E+00	-1.010E+00	-9.560E-03	-1.830E-01	1.860E+00	-1.980E-01	1.540E+02	-1.480E+02	4.590E+02	3.980E+03
35.30	1.600E+01	4.950E+03	1.190E+01	2.190E+00	-1.030E+00	1.300E-01	-1.780E-01	1.960E+00	-2.190E-01	1.530E+02	-1.600E+02	4.650E+02	3.940E+03
35.35	1.570E+01	4.940E+03	1.190E+01	2.130E+00	-1.060E+00	2.920E-01	-1.860E-01	2.060E+00	-2.480E-01	1.500E+02	-1.700E+02	4.710E+02	3.950E+03
35.40	1.560E+01	4.940E+03	1.190E+01	2.080E+00	-1.080E+00	4.630E-01	-2.030E-01	2.170E+00	-2.830E-01	1.410E+02	-1.760E+02	4.750E+02	4.020E+03
35.45	1.600E+01	4.940E+03	1.190E+01	2.030E+00	-1.100E+00	6.240E-01	-2.260E-01	2.290E+00	-3.250E-01	1.330E+02	-1.830E+02	4.780E+02	4.110E+03
35.50	1.600E+01	4.940E+03	1.190E+01	2.000E+00	-1.100E+00	7.660E-01	-2.500E-01	2.410E+00	-3.720E-01	1.270E+02	-1.860E+02	4.840E+02	4.210E+03
35.55	1.630E+01	4.950E+03	1.190E+01	1.970E+00	-1.090E+00	8.900E-01	-2.710E-01	2.550E+00	-4.210E-01	1.270E+02	-1.910E+02	4.900E+02	4.300E+03
35.60	1.600E+01	4.960E+03	1.190E+01	1.940E+00	-1.070E+00	1.000E+00	-2.880E-01	2.690E+00	-4.710E-01	1.330E+02	-1.960E+02	4.990E+02	4.380E+03
35.65	1.580E+01	4.960E+03	1.190E+01	1.920E+00	-1.040E+00	1.100E+00	-3.000E-01	2.840E+00	-5.240E-01	1.430E+02	-2.000E+02	5.100E+02	4.400E+03
35.70	1.600E+01	4.970E+03	1.190E+01	1.900E+00	-1.010E+00	1.190E+00	-3.110E-01	2.980E+00	-5.830E-01	1.470E+02	-1.990E+02	5.200E+02	4.370E+03
35.75	1.600E+01	4.980E+03	1.190E+01	1.880E+00	-9.730E-01	1.260E+00	-3.190E-01	3.110E+00	-6.470E-01	1.460E+02	-1.960E+02	5.280E+02	4.300E+03
35.80	1.600E+01	4.980E+03	1.190E+01	1.850E+00	-9.410E-01	1.320E+00	-3.220E-01	3.240E+00	-7.140E-01	1.460E+02	-1.950E+02	5.380E+02	4.220E+03
35.85	1.590E+01	4.980E+03	1.190E+01	1.800E+00	-9.090E-01	1.360E+00	-3.120E-01	3.350E+00	-7.790E-01	1.430E+02	-1.950E+02	5.500E+02	4.170E+03
35.90	1.620E+01	4.980E+03	1.190E+01	1.740E+00	-8.780E-01	1.370E+00	-2.870E-01	3.430E+00	-8.360E-01	1.310E+02	-1.920E+02	5.610E+02	4.170E+03
35.95	1.690E+01	4.980E+03	1.190E+01	1.660E+00	-8.520E-01	1.380E+00	-2.540E-01	3.480E+00	-8.850E-01	1.290E+02	-1.940E+02	5.730E+02	4.210E+03
36.00	1.690E+01	4.980E+03	1.190E+01	1.560E+00	-8.320E-01	1.410E+00	-2.220E-01	3.500E+00	-9.230E-01	1.230E+02	-1.940E+02	5.880E+02	4.270E+03
36.05	1.750E+01	4.990E+03	1.190E+01	1.460E+00	-8.200E-01	1.450E+00	-1.960E-01	3.480E+00	-9.510E-01	1.220E+02	-1.970E+02	6.000E+02	4.310E+03
36.10	1.750E+01	4.990E+03	1.190E+01	1.360E+00	-8.160E-01	1.520E+00	-1.770E-01	3.440E+00	-9.640E-01	1.200E+02	-2.000E+02	6.110E+02	4.350E+03
36.15	1.740E+01	5.000E+03	1.190E+01	1.270E+00	-8.180E-01	1.600E+00	-1.650E-01	3.360E+00	-9.610E-01	1.170E+02	-2.020E+02	6.240E+02	4.370E+03
36.20	1.690E+01	5.000E+03	1.190E+01	1.210E+00	-8.240E-01	1.680E+00	-1.600E-01	3.250E+00	-9.420E-01	1.140E+02	-2.050E+02	6.340E+02	4.340E+03
36.25	1.650E+01	5.000E+03	1.190E+01	1.160E+00	-8.290E-01	1.760E+00	-1.570E-01	3.120E+00	-9.110E-01	1.120E+02	-2.040E+02	6.450E+02	4.280E+03
36.30	1.650E+01	5.000E+03	1.190E+01	1.100E+00	-8.230E-01	1.830E+00	-1.560E-01	2.980E+00	-8.720E-01	1.140E+02	-2.040E+02	6.560E+02	4.240E+03
36.35	1.640E+01	5.000E+03	1.190E+01	1.020E+00	-8.000E-01	1.890E+00	-1.590E-01	2.850E+00	-8.320E-01	1.100E+02	-2.030E+02	6.640E+02	4.220E+03
36.40	1.610E+01	5.000E+03	1.190E+01	9.190E-01	-7.630E-01	1.950E+00	-1.700E-01	2.720E+00	-8.000E-01	1.070E+02	-2.000E+02	6.710E+02	4.210E+03
36.45	1.630E+01	5.000E+03	1.190E+01	8.060E-01	-7.150E-01	2.010E+00	-1.930E-01	2.620E+00	-7.790E-01	1.020E+02	-1.920E+02	6.790E+02	4.210E+03
36.50	1.650E+01	5.000E+03	1.190E+01	6.870E-01	-6.570E-01	2.070E+00	-2.230E-01	2.540E+00	-7.720E-01	9.490E+01	-1.840E+02	6.870E+02	4.210E+03
36.55	1.700E+01	5.000E+03	1.190E+01	5.630E-01	-5.910E-01	2.110E+00	-2.570E-01	2.480E+00	-7.800E-01	8.870E+01	-1.740E+02	6.940E+02	4.200E+03
36.60	1.660E+01	5.000E+03	1.190E+01	4.400E-01	-5.180E-01	2.150E+00	-2.840E-01	2.440E+00	-8.000E-01	8.420E+01	-1.630E+02	7.030E+02	4.210E+03
36.65	1.670E+01	5.000E+03	1.190E+01	3.270E-01	-4.410E-01	2.170E+00	-3.020E-01	2.420E+00	-8.290E-01	8.440E+01	-1.540E+02	7.100E+02	4.220E+03
36.70	1.660E+01	5.000E+03	1.190E+01	2.430E-01	-3.680E-01	2.170E+00	-3.120E-01	2.410E+00	-8.670E-01	7.850E+01	-1.420E+02	7.170E+02	4.250E+03
36.75	1.700E+01	5.000E+03	1.190E+01	1.970E-01	-3.070E-01	2.180E+00	-3.160E-01	2.410E+00	-9.110E-01	7.590E+01	-1.310E+02	7.240E+02	4.250E+03
36.80	1.700E+01	5.000E+03	1.190E+01	1.860E-01	-2.620E-01	2.190E+00	-3.170E-01	2.420E+00	-9.610E-01	7.990E+01	-1.210E+02	7.310E+02	4.220E+03
36.85	1.710E+01	4.990E+03	1.190E+01	2.040E-01	-2.330E-01	2.200E+00	-3.140E-01	2.440E+00	-1.010E+00	8.580E+01	-1.110E+02	7.400E+02	4.160E+03
36.90	1.710E+01	4.990E+03	1.190E+01	2.440E-01	-2.190E-01	2.220E+00	-3.080E-01	2.440E+00	-1.050E+00	9.730E+01	-1.030E+02	7.480E+02	4.100E+03
36.95	1.700E+01	4.990E+03	1.190E+01	3.090E-01	-2.170E-01	2.230E+00	-2.910E-01	2.440E+00	-1.090E+00	1.070E+02	-9.720E+01	7.550E+02	4.090E+03
37.00	1.740E+01	4.980E+03	1.190E+01	4.010E-01	-2.270E-01	2.230E+00	-2.660E-01	2.420E+00	-1.110E+00	1.110E+02	-9.210E+01	7.610E+02	4.140E+03
37.05	1.740E+01	4.980E+03	1.190E+01	5.160E-01	-2.490E-01	2.230E+00	-2.390E-01	2.400E+00	-1.120E+00	1.110E+02	-8.460E+01	7.640E+02	4.190E+03
37.10	1.690E+01	4.980E+03	1.190E+01	6.430E-01	-2.830E-01	2.220E+00	-2.190E-01	2.380E+00	-1.130E+00	1.120E+02	-7.690E+01	7.670E+02	4.220E+03
37.15	1.720E+01	4.980E+03	1.190E+01	7.680E-01	-3.210E-01	2.230E+00	-2.100E-01	2.380E+00	-1.140E+00	1.150E+02	-7.110E+01	7.680E+02	4.240E+03
37.20	1.760E+01	4.980E+03	1.190E+01	8.840E-01	-3.560E-01	2.260E+00	-2.160E-01	2.390E+00	-1.140E+00	1.190E+02	-6.420E+01	7.700E+02	4.260E+03
37.25	1.710E+01	4.980E+03	1.190E+01	9.880E-01	-3.830E-01	2.320E+00	-2.410E-01	2.400E+00	-1.140E+00	1.240E+02	-5.870E+01	7.710E+02	4.270E+03
37.30	1.730E+01	4.990E+03	1.190E+01	1.080E+00	-4.010E-01	2.420E+00	-2.860E-01	2.420E+00	-1.130E+00	1.280E+02	-5.190E+01	7.710E+02	4.260E+03
37.35	1.730E+01	4.990E+03	1.190E+01	1.150E+00	-4.040E-01	2.550E+00	-3.480E-01	2.430E+00	-1.130E+00	1.330E+02	-4.100E+01	7.700E+02	4.240E+03
37.40	1.790E+01	4.990E+03	1.190E+01	1.210E+00	-3.890E-01	2.680E+00	-4.210E-01	2.430E+00	-1.130E+00	1.370E+02	-3.090E+01	7.680E+02	4.240E+03
37.45	1.790E+01	4.990E+03	1.190E+01	1.250E+00	-3.580E-01	2.790E+00	-4.950E-01	2.420E+00	-1.120E+00	1.430E+02	-2.180E+01	7.640E+02	4.290E+03
37.50	1.780E+01	4.990E+03	1.190E+01	1.300E+00	-3.160E-01	2.900E+00	-5.640E-01	2.390E+00	-1.110E+00	1.480E+02	-1.040E+01	7.610E+02	4.370E+03
37.55	1.780E+01	5.000E+03	1.190E+01	1.360E+00	-2.710E-01	2.980E+00	-6.290E-01	2.360E+00	-1.100E+00	1.530E+02	1.140E+00	7.580E+02	4.420E+03
37.60	1.800E+01	5.000E+03	1.190E+01	1.430E+00	-2.320E-01	3.050E+00	-6.890E-01	2.330E+00	-1.090E+00	1.570E+02	1.460E+01	7.570E+02	4.400E+03
37.65	1.840E+01	5.010E+03	1.190E+01	1.520E+00	-2.020E-01	3.120E+00	-7.440E-01	2.280E+00	-1.090E+00	1.600E+02	3.100E+01	7.550E+02	4.360E+03
37.70	1.800E+01	5.010E+03	1.190E+01	1.630E+00	-1.810E-01	3.180E+00	-7.910E-01	2.240E+00	-1.090E+00	1.640E+02	4.260E+01	7.520E+02	4.320E+03
37.75	1.770E+01	5.010E+03	1.190E+01	1.740E+00	-1.680E-01	3.240E+00	-8.310E-01	2.190E+00	-1.090E+00	1.700E+02	5.140E+01	7.510E+02	4.280E+03
37.80	1.780E+01	5.010E+03	1.190E+01	1.850E+00	-1.680E-01	3.270E+00	-8.580E-01	2.130E+00	-1.090E+00	1.740E+02	6.010E+01	7.460E+02	4.270E+03
37.85	1.800E+01	5.010E+03	1.190E+01	1.970E+00	-1.860E-01	3.270E+00	-8.700E-01	2.060E+00	-1.090E+00	1.780E+02	6.840E+01	7.390E+02	4.250E+03
37.90	1.840E+01	5.010E+03	1.190E+01	2.100E+00	-2.190E-01	3.220E+00	-8.650E-01	1.980E+00	-1.070E+00	1.860E+02	7.470E+01	7.380E+02	4.250E+03
37.95	1.810E+01	5.010E+03	1.190E+01	2.230E+00	-2.620E-01	3.130E+00	-8.410E-01	1.920E+00	-1.060E+00	1.940E+02	7.850E+01	7.330E+02	4.310E+03
38.00	1.780E+01	5.010E+03	1.190E+01	2.360E+00	-3.080E-01	3.010E+00	-8.020E-01	1.860E+00	-1.030E+00	2.020E+02	8.040E+01	7.250E+02	4.400E+03
38.05	1.770E+01	5.020E+03	1.200E+01	2.480E+00	-3.560E-01	2.850E+00	-7.580E-01	1.820E+00	-9.980E-01	2.120E+02	7.950E+01	7.180E+02	4.460E+03
38.10	1.740E+01	5.030E+03	1.200E+01	2.580E+00	-3.980E-01	2.700E+00	-7.210E-01	1.780E+00	-9.600E-01	2.220E+02	7.790E+01	7.090E+02	4.480E+03
38.15	1.760E+01	5.030E+03	1.200E+01	2.650E+00	-4.310E-01	2.580E+00	-7.010E-01	1.750E+00	-9.160E-01	2.310E+02	7.730E+01	6.970E+02	4.470E+03
38.20	1.780E+01	5.040E+03	1.200E+01	2.690E+00	-4.500E-01	2.510E+00	-7.010E-01	1.700E+00	-8.610E-01	2.400E+02	7.510E+01	6.860E+02	4.450E+03
38.25	1.810E+01	5.040E+03	1.200E+01	2.710E+00	-4.600E-01	2.490E+00	-7.210E-01	1.630E+00	-7.940E-01	2.400E+02	7.550E+01	6.770E+02	4.410E+03
38.30	1.810E+01	5.040E+03	1.200E+01	2.730E+00	-4.650E-01	2.510E+00	-7.640E-01	1.530E+00	-7.260E-01	2.380E+02	8.010E+01	6.660E+02	4.300E+03
38.35	1.890E+01	5.040E+03	1.200E+01	2.730E+00	-4.630E-01	2.550E+00	-8.250E-01	1.400E+00	-6.590E-01	2.340E+02	8.500E+01	6.530E+02	4.190E+03
38.40	1.880E+01	5.040E+03	1.200E+01	2.710E+00	-4.490E-01	2.590E+00	-8.930E-01	1.280E+00	-5.960E-01	2.250E+02	9.250E+01	6.440E+02	4.150E+03
38.45	1.920E+01	5.030E+03	1.200E+01	2.680E+00	-4.210E-01	2.630E+00	-9.620E-01	1.180E+00	-5.450E-01	2.140E+02	9.730E+01	6.320E+02	4.180E+03
38.50	1.940E+01	5.030E+03	1.200E+01	2.620E+00	-3.830E-01	2.660E+00	-1.030E+00	1.110E+00	-5.080E-01	2.060E+02	1.020E+02	6.200E+02	4.240E+03
38.55	1.910E+01	5.030E+03	1.200E+01	2.550E+00	-3.370E-01	2.670E+00	-1.090E+00	1.040E+00	-4.800E-01	2.000E+02	1.100E+02	6.120E+02	4.290E+03
38.60	1.880E+01	5.030E+03	1.200E+01	2.460E+00	-2.870E-01	2.670E+00	-1.130E+00	9.880E-01	-4.570E-01	1.960E+02	1.150E+02	6.020E+02	4.350E+03
38.65	1.860E+01	5.030E+03	1.210E+01	2.390E+00	-2.420E-01	2.660E+00	-1.160E+00	9.450E-01	-4.360E-01	1.930E+02	1.190E+02	5.920E+02	4.400E+03
38.70	1.860E+01	5.040E+03	1.210E+01	2.350E+00	-2.080E-01	2.650E+00	-1.170E+00	9.390E-01	-4.220E-01	1.950E+02	1.200E+02	5.850E+02	4.420E+03
38.75	1.850E+01	5.040E+03	1.210E+01	2.340E+00	-1.910E-01	2.640E+00	-1.180E+00	9.810E-01	-4.180E-01	1.930E+02	1.190E+02	5.760E+02	4.390E+03
38.80	1.910E+01	5.040E+03	1.210E+01	2.350E+00	-1.940E-01	2.650E+00	-1.190E+00	1.060E+00	-4.210E-01	1.950E+02	1.190E+02	5.680E+02	4.310E+03
38.85	1.890E+01	5.040E+03	1.210E+01	2.390E+00	-2.170E-01	2.670E+00	-1.190E+00	1.150E+00	-4.260E-01	2.020E+02	1.140E+02	5.610E+02	4.220E+03
38.90	1.830E+01	5.040E+03	1.210E+01	2.450E+00	-2.550E-01	2.680E+00	-1.190E+00	1.260E+00	-4.300E-01	2.080E+02	1.060E+02	5.530E+02	4.170E+03
38.95	1.810E+01	5.030E+03	1.210E+01	2.520E+00	-3.050E-01	2.670E+00	-1.190E+00	1.390E+00	-4.340E-01	2.080E+02	9.820E+01	5.450E+02	4.160E+03
39.00	1.820E+01	5.030E+03	1.210E+01	2.600E+00	-3.660E-01	2.630E+00	-1.180E+00	1.510E+00	-4.400E-01	2.080E+02	9.260E+01	5.360E+02	4.160E+03
39.05	1.780E+01	5.020E+03	1.210E+01	2.670E+00	-4.280E-01	2.580E+00	-1.160E+00	1.630E+00	-4.430E-01	2.050E+02	8.410E+01	5.260E+02	4.210E+03
39.10	1.810E+01	5.020E+03	1.210E+01	2.730E+00	-4.880E-01	2.520E+00	-1.150E+00	1.740E+00	-4.390E-01	2.040E+02	7.550E+01	5.160E+02	4.280E+03
39.15	1.790E+01	5.030E+03	1.210E+01	2.770E+00	-5.400E-01	2.470E+00	-1.150E+00	1.820E+00	-4.270E-01	2.050E+02	6.700E+01	5.090E+02	4.390E+03
39.20	1.740E+01	5.030E+03	1.210E+01	2.800E+00	-5.810E-01	2.450E+00	-1.150E+00	1.900E+00	-4.090E-01	2.060E+02	5.420E+01	5.010E+02	4.490E+03
39.25	1.730E+01	5.040E+03	1.210E+01	2.830E+00	-6.130E-01	2.450E+00	-1.150E+00	1.970E+00	-3.920E-01	2.070E+02	4.810E+01	4.950E+02	4.510E+03
39.30	1.770E+01	5.050E+03	1.220E+01	2.850E+00	-6.380E-01	2.460E+00	-1.160E+00	2.060E+00	-3.820E-01	2.150E+02	4.010E+01	4.880E+02	4.470E+03
39.35	1.780E+01	5.060E+03	1.220E+01	2.870E+00	-6.510E-01	2.460E+00	-1.170E+00	2.160E+00	-3.800E-01	2.110E+02	3.310E+01	4.800E+02	4.430E+03
39.40	1.800E+01	5.060E+03	1.220E+01	2.880E+00	-6.580E-01	2.460E+00	-1.170E+00	2.290E+00	-3.890E-01	2.130E+02	2.520E+01	4.750E+02	4.360E+03
39.45	1.850E+01	5.060E+03	1.220E+01	2.900E+00	-6.670E-01	2.460E+00	-1.180E+00	2.430E+00	-4.070E-01	2.190E+02	1.880E+01	4.720E+02	4.280E+03
39.50	1.840E+01	5.060E+03	1.220E+01	2.910E+00	-6.760E-01	2.450E+00	-1.180E+00	2.570E+00	-4.300E-01	2.180E+02	1.020E+01	4.680E+02	4.230E+03
39.55	1.790E+01	5.060E+03	1.220E+01	2.910E+00	-6.880E-01	2.420E+00	-1.170E+00	2.690E+00	-4.580E-01	2.150E+02	2.180E+00	4.660E+02	4.210E+03
39.60	1.780E+01	5.050E+03	1.230E+01	2.890E+00	-7.000E-01	2.380E+00	-1.160E+00	2.800E+00	-4.880E-01	2.160E+02	-4.490E+00	4.660E+02	4.250E+03
39.65	1.830E+01	5.050E+03	1.230E+01	2.860E+00	-7.120E-01	2.310E+00	-1.130E+00	2.910E+00	-5.190E-01	2.100E+02	-1.350E+01	4.660E+02	4.330E+03
39.70	1.860E+01	5.060E+03	1.230E+01	2.830E+00	-7.300E-01	2.240E+00	-1.090E+00	3.010E+00	-5.510E-01	2.110E+02	-2.750E+01	4.650E+02	4.410E+03
39.75	1.760E+01	5.060E+03	1.230E+01	2.790E+00	-7.540E-01	2.150E+00	-1.050E+00	3.100E+00	-5.790E-01	2.090E+02	-3.740E+01	4.670E+02	4.470E+03
39.80	1.710E+01	5.070E+03	1.230E+01	2.770E+00	-7.880E-01	2.040E+00	-9.890E-01	3.170E+00	-5.980E-01	2.120E+02	-5.040E+01	4.690E+02	4.490E+03
39.85	1.720E+01	5.080E+03	1.240E+01	2.760E+00	-8.310E-01	1.910E+00	-9.180E-01	3.210E+00	-6.010E-01	2.090E+02	-6.290E+01	4.740E+02	4.500E+03
39.90	1.700E+01	5.080E+03	1.240E+01	2.790E+00	-8.810E-01	1.760E+00	-8.360E-01	3.220E+00	-5.930E-01	2.040E+02	-7.650E+01	4.780E+02	4.470E+03
39.95	1.700E+01	5.090E+03	1.240E+01	2.830E+00	-9.380E-01	1.610E+00	-7.540E-01	3.220E+00	-5.810E-01	1.960E+02	-8.570E+01	4.820E+02	4.360E+03
40.00	1.720E+01	5.090E+03	1.240E+01	2.880E+00	-9.990E-01	1.460E+00	-6.790E-01	3.210E+00	-5.670E-01	1.910E+02	-9.680E+01	4.840E+02	4.200E+03
40.05	1.730E+01	5.080E+03	1.240E+01	2.900E+00	-1.050E+00	1.320E+00	-6.100E-01	3.170E+00	-5.480E-01	1.910E+02	-1.080E+02	4.870E+02	4.080E+03
40.10	1.770E+01	5.070E+03	1.240E+01	2.890E+00	-1.090E+00	1.190E+00	-5.440E-01	3.110E+00	-5.180E-01	2.000E+02	-1.250E+02	4.910E+02	4.060E+03
40.15	1.710E+01	5.060E+03	1.240E+01	2.830E+00	-1.110E+00	1.070E+00	-4.840E-01	3.030E+00	-4.830E-01	2.080E+02	-1.400E+02	4.960E+02	4.090E+03
40.20	1.650E+01	5.060E+03	1.240E+01	2.760E+00	-1.130E+00	9.610E-01	-4.360E-01	2.930E+00	-4.470E-01	2.220E+02	-1.550E+02	5.020E+02	4.130E+03
40.25	1.630E+01	5.060E+03	1.240E+01	2.680E+00	-1.140E+00	8.740E-01	-3.970E-01	2.820E+00	-4.100E-01	2.220E+02	-1.630E+02	5.090E+02	4.170E+03
40.30	1.660E+01	5.050E+03	1.250E+01	2.620E+00	-1.140E+00	8.100E-01	-3.660E-01	2.680E+00	-3.730E-01	2.180E+02	-1.700E+02	5.130E+02	4.230E+03
40.35	1.640E+01	5.060E+03	1.250E+01	2.590E+00	-1.150E+00	7.790E-01	-3.430E-01	2.540E+00	-3.360E-01	2.000E+02	-1.750E+02	5.190E+02	4.300E+03
40.40	1.630E+01	5.060E+03	1.250E+01	2.570E+00	-1.150E+00	7.950E-01	-3.340E-01	2.430E+00	-3.100E-01	1.820E+02	-1.790E+02	5.230E+02	4.330E+03
40.45	1.600E+01	5.060E+03	1.250E+01	2.550E+00	-1.150E+00	8.630E-01	-3.390E-01	2.360E+00	-3.010E-01	1.650E+02	-1.820E+02	5.300E+02	4.280E+03
40.50	1.590E+01	5.060E+03	1.250E+01	2.490E+00	-1.140E+00	9.720E-01	-3.550E-01	2.340E+00	-3.120E-01	1.550E+02	-1.820E+02	5.410E+02	4.150E+03
40.55	1.580E+01	5.060E+03	1.250E+01	2.420E+00	-1.130E+00	1.100E+00	-3.720E-01	2.370E+00	-3.410E-01	1.570E+02	-1.840E+02	5.540E+02	4.030E+03
40.60	1.570E+01	5.050E+03	1.250E+01	2.330E+00	-1.110E+00	1.210E+00	-3.800E-01	2.450E+00	-3.850E-01	1.670E+02	-1.890E+02	5.680E+02	3.970E+03
40.65	1.520E+01	5.040E+03	1.250E+01	2.240E+00	-1.090E+00	1.300E+00	-3.780E-01	2.570E+00	-4.390E-01	1.800E+02	-1.980E+02	5.810E+02	3.990E+03
40.70	1.510E+01	5.040E+03	1.250E+01	2.170E+00	-1.080E+00	1.360E+00	-3.650E-01	2.690E+00	-4.950E-01	1.910E+02	-2.070E+02	5.910E+02	4.070E+03
40.75	1.460E+01	5.030E+03	1.250E+01	2.120E+00	-1.060E+00	1.390E+00	-3.440E-01	2.800E+00	-5.480E-01	1.920E+02	-2.130E+02	6.010E+02	4.170E+03
40.80	1.470E+01	5.040E+03	1.250E+01	2.080E+00	-1.060E+00	1.420E+00	-3.150E-01	2.900E+00	-5.980E-01	1.890E+02	-2.190E+02	6.100E+02	4.250E+03
40.85	1.520E+01	5.040E+03	1.250E+01	2.060E+00	-1.070E+00	1.460E+00	-2.880E-01	2.970E+00	-6.410E-01	1.750E+02	-2.180E+02	6.220E+02	4.290E+03
40.90	1.550E+01	5.050E+03	1.250E+01	2.030E+00	-1.080E+00	1.540E+00	-2.710E-01	3.010E+00	-6.800E-01	1.570E+02	-2.140E+02	6.330E+02	4.260E+03
40.95	1.520E+01	5.050E+03	1.250E+01	2.000E+00	-1.090E+00	1.640E+00	-2.660E-01	3.020E+00	-7.130E-01	1.420E+02	-2.100E+02	6.440E+02	4.180E+03
41.00	1.510E+01	5.050E+03	1.250E+01	1.940E+00	-1.090E+00	1.760E+00	-2.710E-01	3.010E+00	-7.380E-01	1.340E+02	-2.080E+02	6.580E+02	4.100E+03
41.05	1.550E+01	5.040E+03	1.250E+01	1.860E+00	-1.070E+00	1.870E+00	-2.800E-01	3.000E+00	-7.600E-01	1.300E+02	-2.090E+02	6.700E+02	4.070E+03
41.10	1.570E+01	5.040E+03	1.260E+01	1.740E+00	-1.020E+00	1.980E+00	-2.890E-01	2.990E+00	-7.760E-01	1.310E+02	-2.100E+02	6.830E+02	4.100E+03
41.15	1.570E+01	5.040E+03	1.260E+01	1.610E+00	-9.700E-01	2.070E+00	-2.980E-01	2.980E+00	-7.910E-01	1.390E+02	-2.120E+02	6.960E+02	4.140E+03
41.20	1.600E+01	5.040E+03	1.260E+01	1.470E+00	-9.120E-01	2.140E+00	-3.050E-01	2.940E+00	-8.050E-01	1.500E+02	-2.110E+02	7.100E+02	4.180E+03
41.25	1.560E+01	5.040E+03	1.260E+01	1.350E+00	-8.560E-01	2.190E+00	-3.080E-01	2.890E+00	-8.200E-01	1.550E+02	-2.060E+02	7.210E+02	4.210E+03
41.30	1.500E+01	5.050E+03	1.260E+01	1.260E+00	-8.050E-01	2.210E+00	-3.080E-01	2.830E+00	-8.380E-01	1.470E+02	-1.980E+02	7.290E+02	4.230E+03
41.35	1.570E+01	5.050E+03	1.260E+01	1.200E+00	-7.620E-01	2.230E+00	-3.120E-01	2.780E+00	-8.610E-01	1.350E+02	-1.890E+02	7.390E+02	4.200E+03
41.40	1.630E+01	5.050E+03	1.260E+01	1.150E+00	-7.260E-01	2.230E+00	-3.230E-01	2.740E+00	-8.930E-01	1.140E+02	-1.750E+02	7.490E+02	4.120E+03
41.45	1.630E+01	5.050E+03	1.260E+01	1.100E+00	-6.890E-01	2.240E+00	-3.370E-01	2.730E+00	-9.300E-01	9.640E+01	-1.640E+02	7.590E+02	4.040E+03
41.50	1.670E+01	5.040E+03	1.260E+01	1.030E+00	-6.440E-01	2.250E+00	-3.460E-01	2.730E+00	-9.670E-01	8.460E+01	-1.520E+02	7.720E+02	4.010E+03
41.55	1.710E+01	5.040E+03	1.260E+01	9.430E-01	-5.910E-01	2.240E+00	-3.440E-01	2.730E+00	-1.000E+00	8.350E+01	-1.440E+02	7.840E+02	4.010E+03
41.60	1.680E+01	5.030E+03	1.260E+01	8.380E-01	-5.340E-01	2.210E+00	-3.290E-01	2.740E+00	-1.040E+00	8.950E+01	-1.400E+02	7.920E+02	4.040E+03
41.65	1.660E+01	5.030E+03	1.260E+01	7.370E-01	-4.800E-01	2.140E+00	-3.010E-01	2.730E+00	-1.070E+00	9.890E+01	-1.340E+02	8.000E+02	4.060E+03
41.70	1.670E+01	5.030E+03	1.260E+01	6.680E-01	-4.380E-01	2.050E+00	-2.600E-01	2.680E+00	-1.090E+00	1.080E+02	-1.280E+02	8.090E+02	4.090E+03
41.75	1.650E+01	5.030E+03	1.260E+01	6.440E-01	-4.120E-01	1.940E+00	-2.100E-01	2.610E+00	-1.090E+00	1.110E+02	-1.230E+02	8.160E+02	4.110E+03
41.80	1.590E+01	5.030E+03	1.260E+01	6.550E-01	-4.000E-01	1.820E+00	-1.530E-01	2.530E+00	-1.080E+00	1.120E+02	-1.170E+02	8.240E+02	4.080E+03
41.85	1.590E+01	5.030E+03	1.260E+01	6.970E-01	-4.010E-01	1.690E+00	-9.390E-02	2.450E+00	-1.080E+00	1.080E+02	-1.050E+02	8.320E+02	4.000E+03
41.90	1.580E+01	5.020E+03	1.260E+01	7.680E-01	-4.110E-01	1.560E+00	-3.750E-02	2.400E+00	-1.100E+00	1.040E+02	-9.580E+01	8.360E+02	3.910E+03
41.95	1.550E+01	5.020E+03	1.260E+01	8.500E-01	-4.230E-01	1.440E+00	9.880E-03	2.350E+00	-1.120E+00	1.010E+02	-8.760E+01	8.370E+02	3.840E+03
42.00	1.560E+01	5.010E+03	1.260E+01	9.170E-01	-4.340E-01	1.360E+00	3.780E-02	2.310E+00	-1.140E+00	1.030E+02	-7.690E+01	8.380E+02	3.810E+03
42.05	1.530E+01	5.000E+03	1.260E+01	9.460E-01	-4.320E-01	1.340E+00	3.850E-02	2.260E+00	-1.150E+00	1.070E+02	-6.890E+01	8.400E+02	3.840E+03
42.10	1.540E+01	5.000E+03	1.260E+01	9.300E-01	-4.140E-01	1.380E+00	1.300E-02	2.190E+00	-1.150E+00	1.120E+02	-6.070E+01	8.420E+02	3.910E+03
42.15	1.590E+01	4.990E+03	1.260E+01	8.820E-01	-3.800E-01	1.480E+00	-3.460E-02	2.100E+00	-1.140E+00	1.200E+02	-5.160E+01	8.440E+02	4.010E+03
42.20	1.550E+01	4.990E+03	1.260E+01	8.170E-01	-3.310E-01	1.620E+00	-1.010E-01	2.000E+00	-1.120E+00	1.230E+02	-4.250E+01	8.420E+02	4.080E+03
42.25	1.550E+01	5.000E+03	1.260E+01	7.540E-01	-2.760E-01	1.790E+00	-1.810E-01	1.880E+00	-1.090E+00	1.200E+02	-2.930E+01	8.380E+02	4.110E+03
42.30	1.560E+01	5.000E+03	1.260E+01	7.140E-01	-2.190E-01	1.950E+00	-2.640E-01	1.740E+00	-1.050E+00	1.130E+02	-1.430E+01	8.320E+02	4.110E+03
42.35	1.580E+01	5.000E+03	1.260E+01	7.030E-01	-1.650E-01	2.090E+00	-3.470E-01	1.620E+00	-1.010E+00	1.020E+02	9.730E-02	8.290E+02	4.060E+03
42.40	1.540E+01	5.000E+03	1.260E+01	7.060E-01	-1.140E-01	2.200E+00	-4.250E-01	1.520E+00	-9.720E-01	9.390E+01	1.590E+01	8.260E+02	3.990E+03
42.45	1.540E+01	5.000E+03	1.250E+01	7.120E-01	-6.560E-02	2.300E+00	-5.000E-01	1.440E+00	-9.380E-01	8.970E+01	3.160E+01	8.250E+02	3.900E+03
42.50	1.570E+01	4.990E+03	1.250E+01	7.220E-01	-2.170E-02	2.380E+00	-5.740E-01	1.350E+00	-9.040E-01	9.580E+01	4.370E+01	8.250E+02	3.810E+03
42.55	1.590E+01	4.990E+03	1.250E+01	7.490E-01	1.270E-02	2.460E+00	-6.440E-01	1.250E+00	-8.680E-01	1.080E+02	5.300E+01	8.220E+02	3.770E+03
42.60	1.600E+01	4.980E+03	1.250E+01	7.930E-01	3.560E-02	2.520E+00	-7.070E-01	1.140E+00	-8.290E-01	1.250E+02	5.910E+01	8.180E+02	3.800E+03
42.65	1.570E+01	4.970E+03	1.250E+01	8.470E-01	4.580E-02	2.560E+00	-7.610E-01	1.020E+00	-7.910E-01	1.390E+02	6.250E+01	8.130E+02	3.880E+03
42.70	1.550E+01	4.970E+03	1.250E+01	9.080E-01	4.250E-02	2.590E+00	-8.050E-01	9.080E-01	-7.560E-01	1.480E+02	6.910E+01	8.050E+02	3.980E+03
42.75	1.500E+01	4.970E+03	1.250E+01	9.720E-01	2.840E-02	2.580E+00	-8.330E-01	8.070E-01	-7.240E-01	1.520E+02	7.440E+01	7.960E+02	4.060E+03
42.80	1.540E+01	4.980E+03	1.250E+01	1.030E+00	6.700E-03	2.550E+00	-8.490E-01	7.250E-01	-6.950E-01	1.490E+02	8.050E+01	7.900E+02	4.090E+03
42.85	1.520E+01	4.980E+03	1.250E+01	1.090E+00	-1.530E-02	2.530E+00	-8.580E-01	6.610E-01	-6.700E-01	1.410E+02	8.850E+01	7.810E+02	4.080E+03
42.90	1.500E+01	4.980E+03	1.250E+01	1.120E+00	-2.790E-02	2.540E+00	-8.710E-01	6.220E-01	-6.460E-01	1.360E+02	9.430E+01	7.690E+02	4.050E+03
42.95	1.500E+01	4.980E+03	1.250E+01	1.120E+00	-2.620E-02	2.570E+00	-8.880E-01	6.170E-01	-6.240E-01	1.330E+02	9.580E+01	7.600E+02	4.020E+03
43.00	1.420E+01	4.980E+03	1.250E+01	1.080E+00	-1.370E-02	2.610E+00	-9.110E-01	6.450E-01	-6.120E-01	1.310E+02	9.880E+01	7.490E+02	3.950E+03
43.05	1.450E+01	4.980E+03	1.250E+01	1.020E+00	6.440E-03	2.650E+00	-9.420E-01	6.940E-01	-6.100E-01	1.350E+02	1.000E+02	7.350E+02	3.840E+03
43.10	1.480E+01	4.970E+03	1.240E+01	9.340E-01	3.570E-02	2.690E+00	-9.740E-01	7.390E-01	-6.050E-01	1.400E+02	1.050E+02	7.260E+02	3.780E+03
43.15	1.410E+01	4.970E+03	1.240E+01	8.460E-01	7.520E-02	2.710E+00	-1.010E+00	7.680E-01	-5.930E-01	1.410E+02	1.070E+02	7.140E+02	3.810E+03
43.20	1.380E+01	4.960E+03	1.240E+01	7.670E-01	1.180E-01	2.720E+00	-1.040E+00	7.830E-01	-5.770E-01	1.380E+02	1.120E+02	7.010E+02	3.870E+03
43.25	1.370E+01	4.960E+03	1.240E+01	7.120E-01	1.570E-01	2.700E+00	-1.070E+00	7.840E-01	-5.600E-01	1.320E+02	1.170E+02	6.870E+02	3.930E+03
43.30	1.360E+01	4.960E+03	1.240E+01	6.860E-01	1.890E-01	2.670E+00	-1.100E+00	7.860E-01	-5.460E-01	1.210E+02	1.230E+02	6.730E+02	3.980E+03
43.35	1.340E+01	4.960E+03	1.240E+01	6.850E-01	2.120E-01	2.640E+00	-1.150E+00	7.900E-01	-5.350E-01	1.080E+02	1.300E+02	6.610E+02	3.980E+03
43.40	1.350E+01	4.960E+03	1.240E+01	7.000E-01	2.250E-01	2.590E+00	-1.180E+00	7.880E-01	-5.260E-01	9.870E+01	1.370E+02	6.490E+02	3.940E+03
43.45	1.400E+01	4.960E+03	1.230E+01	7.190E-01	2.340E-01	2.510E+00	-1.210E+00	7.800E-01	-5.160E-01	9.140E+01	1.430E+02	6.380E+02	3.900E+03
43.50	1.420E+01	4.950E+03	1.230E+01	7.370E-01	2.420E-01	2.400E+00	-1.220E+00	7.710E-01	-4.990E-01	9.490E+01	1.460E+02	6.290E+02	3.880E+03
43.55	1.460E+01	4.950E+03	1.230E+01	7.610E-01	2.480E-01	2.280E+00	-1.210E+00	7.630E-01	-4.730E-01	1.040E+02	1.430E+02	6.190E+02	3.900E+03
43.60	1.480E+01	4.950E+03	1.230E+01	8.020E-01	2.430E-01	2.140E+00	-1.190E+00	7.540E-01	-4.410E-01	1.140E+02	1.370E+02	6.080E+02	3.910E+03
43.65	1.470E+01	4.950E+03	1.230E+01	8.670E-01	2.180E-01	2.000E+00	-1.150E+00	7.270E-01	-4.000E-01	1.310E+02	1.270E+02	5.980E+02	3.880E+03
43.70	1.480E+01	4.940E+03	1.230E+01	9.620E-01	1.710E-01	1.850E+00	-1.120E+00	6.690E-01	-3.460E-01	1.440E+02	1.200E+02	5.890E+02	3.860E+03
43.75	1.510E+01	4.940E+03	1.230E+01	1.090E+00	1.020E-01	1.720E+00	-1.070E+00	5.890E-01	-2.830E-01	1.520E+02	1.120E+02	5.780E+02	3.890E+03
43.80	1.500E+01	4.940E+03	1.220E+01	1.260E+00	1.440E-02	1.600E+00	-1.020E+00	5.110E-01	-2.190E-01	1.590E+02	1.010E+02	5.680E+02	3.940E+03
43.85	1.490E+01	4.940E+03	1.220E+01	1.440E+00	-9.000E-02	1.500E+00	-9.760E-01	4.570E-01	-1.610E-01	1.660E+02	8.720E+01	5.570E+02	3.970E+03
43.90	1.480E+01	4.940E+03	1.220E+01	1.630E+00	-2.060E-01	1.430E+00	-9.380E-01	4.320E-01	-1.160E-01	1.690E+02	7.940E+01	5.470E+02	3.940E+03
43.95	1.520E+01	4.940E+03	1.220E+01	1.820E+00	-3.240E-01	1.360E+00	-9.100E-01	4.310E-01	-7.850E-02	1.650E+02	6.620E+01	5.320E+02	3.890E+03
44.00	1.550E+01	4.930E+03	1.220E+01	1.980E+00	-4.340E-01	1.320E+00	-8.920E-01	4.440E-01	-4.570E-02	1.650E+02	5.630E+01	5.210E+02	3.860E+03
44.05	1.570E+01	4.930E+03	1.220E+01	2.110E+00	-5.270E-01	1.280E+00	-8.740E-01	4.690E-01	-1.490E-02	1.690E+02	4.570E+01	5.120E+02	3.910E+03
44.10	1.540E+01	4.930E+03	1.220E+01	2.200E+00	-5.970E-01	1.240E+00	-8.570E-01	5.090E-01	1.160E-02	1.700E+02	3.360E+01	5.020E+02	4.020E+03
44.15	1.510E+01	4.930E+03	1.220E+01	2.280E+00	-6.470E-01	1.210E+00	-8.430E-01	5.680E-01	2.830E-02	1.740E+02	2.280E+01	4.900E+02	4.110E+03
44.20	1.490E+01	4.940E+03	1.210E+01	2.330E+00	-6.810E-01	1.170E+00	-8.330E-01	6.470E-01	3.290E-02	1.770E+02	1.470E+01	4.790E+02	4.120E+03
44.25	1.560E+01	4.940E+03	1.210E+01	2.380E+00	-7.060E-01	1.130E+00	-8.280E-01	7.410E-01	2.760E-02	1.790E+02	9.290E+00	4.700E+02	4.070E+03
44.30	1.570E+01	4.940E+03	1.210E+01	2.430E+00	-7.210E-01	1.080E+00	-8.250E-01	8.380E-01	1.900E-02	1.780E+02	1.720E+00	4.620E+02	4.030E+03
44.35	1.530E+01	4.940E+03	1.210E+01	2.460E+00	-7.310E-01	1.040E+00	-8.230E-01	9.310E-01	9.530E-03	1.790E+02	-5.920E+00	4.570E+02	4.010E+03
44.40	1.560E+01	4.940E+03	1.210E+01	2.480E+00	-7.380E-01	1.010E+00	-8.220E-01	1.010E+00	-2.000E-03	1.820E+02	-1.180E+01	4.540E+02	4.000E+03
44.45	1.570E+01	4.940E+03	1.210E+01	2.500E+00	-7.480E-01	9.910E-01	-8.230E-01	1.080E+00	-1.670E-02	1.870E+02	-1.950E+01	4.510E+02	3.990E+03
44.50	1.560E+01	4.940E+03	1.210E+01	2.530E+00	-7.700E-01	9.780E-01	-8.200E-01	1.140E+00	-3.150E-02	1.890E+02	-2.820E+01	4.480E+02	4.000E+03
44.55	1.570E+01	4.940E+03	1.210E+01	2.590E+00	-8.080E-01	9.700E-01	-8.070E-01	1.190E+00	-4.080E-02	1.850E+02	-3.740E+01	4.460E+02	4.040E+03
44.60	1.590E+01	4.940E+03	1.210E+01	2.670E+00	-8.590E-01	9.610E-01	-7.870E-01	1.230E+00	-4.510E-02	1.790E+02	-4.710E+01	4.450E+02	4.090E+03
44.65	1.630E+01	4.950E+03	1.210E+01	2.750E+00	-9.220E-01	9.540E-01	-7.590E-01	1.250E+00	-4.680E-02	1.760E+02	-5.880E+01	4.450E+02	4.120E+03
44.70	1.640E+01	4.950E+03	1.210E+01	2.810E+00	-9.860E-01	9.410E-01	-7.240E-01	1.270E+00	-4.570E-02	1.690E+02	-6.670E+01	4.460E+02	4.140E+03
44.75	1.630E+01	4.950E+03	1.210E+01	2.830E+00	-1.040E+00	9.240E-01	-6.810E-01	1.290E+00	-3.840E-02	1.690E+02	-7.860E+01	4.480E+02	4.170E+03
44.80	1.640E+01	4.960E+03	1.210E+01	2.840E+00	-1.090E+00	9.150E-01	-6.340E-01	1.290E+00	-2.210E-02	1.780E+02	-9.500E+01	4.500E+02	4.210E+03
44.85	1.590E+01	4.960E+03	1.210E+01	2.830E+00	-1.130E+00	9.220E-01	-5.880E-01	1.280E+00	3.590E-03	1.940E+02	-1.140E+02	4.510E+02	4.240E+03
44.90	1.620E+01	4.970E+03	1.210E+01	2.840E+00	-1.170E+00	9.450E-01	-5.450E-01	1.270E+00	3.660E-02	2.030E+02	-1.300E+02	4.550E+02	4.250E+03
44.95	1.640E+01	4.970E+03	1.210E+01	2.870E+00	-1.220E+00	9.740E-01	-5.090E-01	1.260E+00	6.770E-02	2.170E+02	-1.490E+02	4.570E+02	4.210E+03
45.00	1.600E+01	4.980E+03	1.210E+01	2.930E+00	-1.280E+00	9.990E-01	-4.820E-01	1.270E+00	8.530E-02	2.150E+02	-1.590E+02	4.610E+02	4.140E+03
45.05	1.610E+01	4.980E+03	1.210E+01	2.980E+00	-1.330E+00	1.010E+00	-4.650E-01	1.310E+00	8.250E-02	2.100E+02	-1.670E+02	4.620E+02	4.070E+03
45.10	1.640E+01	4.970E+03	1.210E+01	3.010E+00	-1.360E+00	1.010E+00	-4.550E-01	1.380E+00	6.170E-02	2.000E+02	-1.730E+02	4.640E+02	4.030E+03
45.15	1.610E+01	4.970E+03	1.200E+01	2.990E+00	-1.380E+00	1.010E+00	-4.510E-01	1.470E+00	2.790E-02	1.890E+02	-1.790E+02	4.680E+02	4.040E+03
45.20	1.600E+01	4.970E+03	1.200E+01	2.930E+00	-1.370E+00	9.900E-01	-4.470E-01	1.560E+00	-1.260E-02	1.840E+02	-1.840E+02	4.720E+02	4.080E+03
45.25	1.580E+01	4.970E+03	1.210E+01	2.830E+00	-1.340E+00	9.690E-01	-4.370E-01	1.640E+00	-5.150E-02	1.780E+02	-1.870E+02	4.800E+02	4.170E+03
45.30	1.600E+01	4.970E+03	1.210E+01	2.700E+00	-1.290E+00	9.500E-01	-4.200E-01	1.700E+00	-8.520E-02	1.800E+02	-1.930E+02	4.890E+02	4.290E+03
45.35	1.630E+01	4.980E+03	1.210E+01	2.560E+00	-1.230E+00	9.450E-01	-4.010E-01	1.750E+00	-1.170E-01	1.850E+02	-1.980E+02	5.010E+02	4.390E+03
45.40	1.590E+01	4.990E+03	1.210E+01	2.430E+00	-1.180E+00	9.630E-01	-3.840E-01	1.810E+00	-1.560E-01	1.830E+02	-2.020E+02	5.090E+02	4.430E+03
45.45	1.640E+01	5.000E+03	1.210E+01	2.300E+00	-1.130E+00	9.960E-01	-3.710E-01	1.900E+00	-2.130E-01	1.810E+02	-2.030E+02	5.180E+02	4.340E+03
45.50	1.630E+01	5.000E+03	1.210E+01	2.190E+00	-1.090E+00	1.030E+00	-3.570E-01	2.020E+00	-2.840E-01	1.820E+02	-2.060E+02	5.290E+02	4.190E+03
45.55	1.640E+01	5.000E+03	1.210E+01	2.090E+00	-1.060E+00	1.070E+00	-3.330E-01	2.150E+00	-3.590E-01	1.760E+02	-2.070E+02	5.410E+02	4.050E+03
45.60	1.670E+01	4.990E+03	1.210E+01	2.010E+00	-1.040E+00	1.100E+00	-2.960E-01	2.280E+00	-4.310E-01	1.650E+02	-2.090E+02	5.500E+02	3.980E+03
45.65	1.680E+01	4.990E+03	1.210E+01	1.920E+00	-1.030E+00	1.120E+00	-2.490E-01	2.390E+00	-4.980E-01	1.600E+02	-2.110E+02	5.620E+02	3.990E+03
45.70	1.660E+01	4.980E+03	1.210E+01	1.830E+00	-1.020E+00	1.130E+00	-2.010E-01	2.510E+00	-5.610E-01	1.630E+02	-2.160E+02	5.770E+02	4.080E+03
45.75	1.660E+01	4.980E+03	1.210E+01	1.730E+00	-1.000E+00	1.160E+00	-1.600E-01	2.610E+00	-6.200E-01	1.640E+02	-2.230E+02	5.860E+02	4.210E+03
45.80	1.650E+01	4.990E+03	1.210E+01	1.630E+00	-9.900E-01	1.220E+00	-1.340E-01	2.710E+00	-6.740E-01	1.560E+02	-2.250E+02	5.960E+02	4.330E+03
45.85	1.580E+01	4.990E+03	1.210E+01	1.520E+00	-9.790E-01	1.310E+00	-1.300E-01	2.780E+00	-7.230E-01	1.530E+02	-2.260E+02	6.070E+02	4.360E+03
45.90	1.570E+01	5.000E+03	1.210E+01	1.420E+00	-9.660E-01	1.430E+00	-1.430E-01	2.840E+00	-7.630E-01	1.500E+02	-2.250E+02	6.180E+02	4.320E+03
45.95	1.530E+01	5.000E+03	1.210E+01	1.330E+00	-9.440E-01	1.550E+00	-1.600E-01	2.880E+00	-7.930E-01	1.380E+02	-2.210E+02	6.280E+02	4.300E+03
46.00	1.560E+01	5.010E+03	1.210E+01	1.240E+00	-9.080E-01	1.670E+00	-1.770E-01	2.910E+00	-8.140E-01	1.280E+02	-2.200E+02	6.360E+02	4.290E+03
46.05	1.570E+01	5.010E+03	1.210E+01	1.150E+00	-8.630E-01	1.760E+00	-1.950E-01	2.920E+00	-8.310E-01	1.200E+02	-2.140E+02	6.490E+02	4.250E+03
46.10	1.550E+01	5.010E+03	1.210E+01	1.070E+00	-8.170E-01	1.820E+00	-2.160E-01	2.920E+00	-8.500E-01	1.160E+02	-2.080E+02	6.590E+02	4.170E+03
46.15	1.610E+01	5.010E+03	1.210E+01	1.000E+00	-7.680E-01	1.860E+00	-2.350E-01	2.920E+00	-8.720E-01	1.030E+02	-1.960E+02	6.690E+02	4.120E+03
46.20	1.610E+01	5.000E+03	1.210E+01	9.540E-01	-7.180E-01	1.860E+00	-2.480E-01	2.920E+00	-9.000E-01	1.010E+02	-1.890E+02	6.780E+02	4.100E+03
46.25	1.630E+01	5.000E+03	1.210E+01	9.190E-01	-6.670E-01	1.840E+00	-2.490E-01	2.910E+00	-9.300E-01	1.010E+02	-1.810E+02	6.920E+02	4.160E+03
46.30	1.630E+01	5.000E+03	1.210E+01	8.960E-01	-6.190E-01	1.800E+00	-2.430E-01	2.920E+00	-9.680E-01	9.700E+01	-1.720E+02	7.010E+02	4.220E+03
46.35	1.670E+01	5.000E+03	1.210E+01	8.730E-01	-5.750E-01	1.780E+00	-2.370E-01	2.940E+00	-1.020E+00	1.020E+02	-1.660E+02	7.090E+02	4.250E+03
46.40	1.640E+01	5.010E+03	1.210E+01	8.390E-01	-5.350E-01	1.770E+00	-2.280E-01	2.960E+00	-1.070E+00	1.060E+02	-1.550E+02	7.220E+02	4.270E+03
46.45	1.600E+01	5.010E+03	1.210E+01	8.050E-01	-5.000E-01	1.760E+00	-2.140E-01	2.980E+00	-1.120E+00	1.120E+02	-1.490E+02	7.320E+02	4.280E+03
46.50	1.590E+01	5.010E+03	1.210E+01	7.730E-01	-4.730E-01	1.760E+00	-1.930E-01	3.000E+00	-1.160E+00	1.140E+02	-1.440E+02	7.400E+02	4.280E+03
46.55	1.620E+01	5.010E+03	1.210E+01	7.380E-01	-4.510E-01	1.750E+00	-1.630E-01	3.010E+00	-1.200E+00	1.140E+02	-1.360E+02	7.500E+02	4.250E+03
46.60	1.680E+01	5.010E+03	1.210E+01	6.960E-01	-4.330E-01	1.740E+00	-1.270E-01	3.020E+00	-1.230E+00	1.140E+02	-1.300E+02	7.580E+02	4.220E+03
46.65	1.670E+01	5.010E+03	1.210E+01	6.500E-01	-4.160E-01	1.730E+00	-8.900E-02	3.020E+00	-1.260E+00	1.130E+02	-1.280E+02	7.640E+02	4.190E+03
46.70	1.610E+01	5.010E+03	1.210E+01	6.000E-01	-4.010E-01	1.740E+00	-5.580E-02	3.000E+00	-1.270E+00	1.080E+02	-1.190E+02	7.710E+02	4.160E+03
46.75	1.650E+01	5.010E+03	1.210E+01	5.490E-01	-3.850E-01	1.750E+00	-3.480E-02	2.970E+00	-1.280E+00	1.020E+02	-1.120E+02	7.760E+02	4.140E+03
46.80	1.680E+01	5.010E+03	1.210E+01	5.000E-01	-3.660E-01	1.790E+00	-3.240E-02	2.930E+00	-1.290E+00	9.560E+01	-1.050E+02	7.800E+02	4.150E+03
46.85	1.700E+01	5.010E+03	1.210E+01	4.530E-01	-3.440E-01	1.860E+00	-5.060E-02	2.880E+00	-1.290E+00	9.250E+01	-9.550E+01	7.840E+02	4.170E+03
46.90	1.690E+01	5.010E+03	1.210E+01	4.090E-01	-3.170E-01	1.940E+00	-8.860E-02	2.830E+00	-1.290E+00	9.170E+01	-8.540E+01	7.870E+02	4.170E+03
46.95	1.730E+01	5.000E+03	1.210E+01	3.750E-01	-2.830E-01	2.020E+00	-1.390E-01	2.780E+00	-1.290E+00	9.420E+01	-7.340E+01	7.900E+02	4.160E+03
47.00	1.720E+01	5.000E+03	1.210E+01	3.630E-01	-2.400E-01	2.070E+00	-1.910E-01	2.720E+00	-1.290E+00	9.650E+01	-6.090E+01	7.920E+02	4.210E+03
47.05	1.680E+01	5.010E+03	1.210E+01	3.760E-01	-1.930E-01	2.110E+00	-2.420E-01	2.640E+00	-1.270E+00	1.000E+02	-4.960E+01	7.920E+02	4.260E+03
47.10	1.700E+01	5.010E+03	1.210E+01	4.120E-01	-1.470E-01	2.130E+00	-2.940E-01	2.530E+00	-1.250E+00	1.010E+02	-3.450E+01	7.920E+02	4.270E+03
47.15	1.660E+01	5.010E+03	1.210E+01	4.690E-01	-1.030E-01	2.150E+00	-3.450E-01	2.380E+00	-1.210E+00	1.020E+02	-1.700E+01	7.920E+02	4.250E+03
47.20	1.680E+01	5.010E+03	1.210E+01	5.440E-01	-6.560E-02	2.160E+00	-3.960E-01	2.200E+00	-1.170E+00	1.060E+02	-1.490E+00	7.930E+02	4.210E+03
47.25	1.680E+01	5.010E+03	1.210E+01	6.340E-01	-3.510E-02	2.190E+00	-4.440E-01	2.010E+00	-1.110E+00	1.070E+02	1.200E+01	7.930E+02	4.180E+03
47.30	1.700E+01	5.010E+03	1.210E+01	7.310E-01	-1.650E-02	2.230E+00	-4.900E-01	1.840E+00	-1.070E+00	1.100E+02	2.580E+01	7.930E+02	4.130E+03
47.35	1.690E+01	5.010E+03	1.210E+01	8.330E-01	-1.250E-02	2.280E+00	-5.330E-01	1.710E+00	-1.030E+00	1.200E+02	3.580E+01	7.920E+02	4.080E+03
47.40	1.670E+01	5.000E+03	1.210E+01	9.450E-01	-2.490E-02	2.330E+00	-5.730E-01	1.600E+00	-1.000E+00	1.290E+02	4.030E+01	7.910E+02	4.040E+03
47.45	1.630E+01	5.000E+03	1.210E+01	1.070E+00	-5.520E-02	2.390E+00	-6.090E-01	1.500E+00	-9.760E-01	1.370E+02	4.690E+01	7.890E+02	4.030E+03
47.50	1.670E+01	4.990E+03	1.210E+01	1.190E+00	-9.830E-02	2.440E+00	-6.410E-01	1.370E+00	-9.410E-01	1.440E+02	5.210E+01	7.840E+02	4.060E+03
47.55	1.710E+01	4.990E+03	1.210E+01	1.310E+00	-1.480E-01	2.490E+00	-6.650E-01	1.210E+00	-8.910E-01	1.520E+02	5.420E+01	7.800E+02	4.120E+03
47.60	1.730E+01	4.990E+03	1.210E+01	1.430E+00	-1.990E-01	2.530E+00	-6.810E-01	1.030E+00	-8.240E-01	1.580E+02	5.730E+01	7.740E+02	4.220E+03
47.65	1.690E+01	4.990E+03	1.210E+01	1.550E+00	-2.420E-01	2.560E+00	-6.890E-01	8.260E-01	-7.420E-01	1.600E+02	6.140E+01	7.640E+02	4.330E+03
47.70	1.670E+01	5.000E+03	1.210E+01	1.640E+00	-2.740E-01	2.570E+00	-6.950E-01	6.340E-01	-6.530E-01	1.640E+02	6.190E+01	7.550E+02	4.390E+03
47.75	1.640E+01	5.010E+03	1.210E+01	1.700E+00	-2.920E-01	2.570E+00	-7.070E-01	4.740E-01	-5.700E-01	1.670E+02	6.460E+01	7.470E+02	4.370E+03
47.80	1.630E+01	5.020E+03	1.210E+01	1.730E+00	-2.950E-01	2.580E+00	-7.310E-01	3.530E-01	-5.010E-01	1.700E+02	6.890E+01	7.350E+02	4.270E+03
47.85	1.620E+01	5.020E+03	1.210E+01	1.740E+00	-2.840E-01	2.580E+00	-7.670E-01	2.690E-01	-4.450E-01	1.770E+02	7.290E+01	7.250E+02	4.170E+03
47.90	1.630E+01	5.010E+03	1.210E+01	1.730E+00	-2.630E-01	2.570E+00	-8.110E-01	2.110E-01	-3.980E-01	1.830E+02	7.500E+01	7.160E+02	4.070E+03
47.95	1.610E+01	5.010E+03	1.210E+01	1.740E+00	-2.390E-01	2.560E+00	-8.600E-01	1.610E-01	-3.620E-01	1.880E+02	8.020E+01	7.070E+02	4.010E+03
48.00	1.640E+01	5.000E+03	1.210E+01	1.770E+00	-2.180E-01	2.520E+00	-9.070E-01	1.100E-01	-3.320E-01	1.850E+02	8.720E+01	6.950E+02	3.990E+03
48.05	1.660E+01	4.990E+03	1.210E+01	1.810E+00	-2.020E-01	2.470E+00	-9.510E-01	5.840E-02	-3.090E-01	1.840E+02	9.530E+01	6.840E+02	4.010E+03
48.10	1.670E+01	4.990E+03	1.210E+01	1.860E+00	-1.860E-01	2.400E+00	-9.870E-01	6.500E-03	-2.890E-01	1.780E+02	1.060E+02	6.760E+02	4.090E+03
48.15	1.680E+01	4.990E+03	1.210E+01	1.900E+00	-1.710E-01	2.320E+00	-1.010E+00	-4.300E-02	-2.720E-01	1.770E+02	1.110E+02	6.630E+02	4.210E+03
48.20	1.720E+01	4.990E+03	1.210E+01	1.930E+00	-1.560E-01	2.240E+00	-1.020E+00	-8.790E-02	-2.550E-01	1.860E+02	1.130E+02	6.550E+02	4.310E+03
48.25	1.650E+01	5.000E+03	1.210E+01	1.940E+00	-1.400E-01	2.170E+00	-1.030E+00	-1.280E-01	-2.360E-01	1.930E+02	1.160E+02	6.480E+02	4.390E+03
48.30	1.640E+01	5.010E+03	1.210E+01	1.950E+00	-1.280E-01	2.120E+00	-1.020E+00	-1.590E-01	-2.150E-01	1.910E+02	1.160E+02	6.350E+02	4.400E+03
48.35	1.650E+01	5.010E+03	1.210E+01	1.960E+00	-1.280E-01	2.080E+00	-1.010E+00	-1.770E-01	-1.950E-01	1.890E+02	1.160E+02	6.240E+02	4.300E+03
48.40	1.600E+01	5.020E+03	1.210E+01	1.980E+00	-1.420E-01	2.070E+00	-1.000E+00	-1.850E-01	-1.780E-01	1.860E+02	1.160E+02	6.150E+02	4.110E+03
48.45	1.560E+01	5.010E+03	1.210E+01	2.000E+00	-1.710E-01	2.070E+00	-9.990E-01	-1.860E-01	-1.610E-01	1.820E+02	1.130E+02	6.030E+02	3.930E+03
48.50	1.580E+01	5.000E+03	1.210E+01	2.040E+00	-2.150E-01	2.070E+00	-9.990E-01	-1.830E-01	-1.430E-01	1.780E+02	1.100E+02	5.940E+02	3.820E+03
48.55	1.560E+01	4.980E+03	1.210E+01	2.090E+00	-2.710E-01	2.060E+00	-9.980E-01	-1.840E-01	-1.190E-01	1.810E+02	1.020E+02	5.840E+02	3.820E+03
48.60	1.590E+01	4.970E+03	1.210E+01	2.160E+00	-3.320E-01	2.020E+00	-9.940E-01	-1.880E-01	-8.720E-02	1.820E+02	9.630E+01	5.750E+02	3.920E+03
48.65	1.620E+01	4.970E+03	1.210E+01	2.240E+00	-3.950E-01	1.970E+00	-9.870E-01	-1.850E-01	-4.940E-02	1.840E+02	8.690E+01	5.630E+02	4.070E+03
48.70	1.580E+01	4.970E+03	1.210E+01	2.320E+00	-4.570E-01	1.890E+00	-9.770E-01	-1.630E-01	-9.420E-03	1.940E+02	7.560E+01	5.510E+02	4.220E+03
48.75	1.620E+01	4.970E+03	1.210E+01	2.410E+00	-5.110E-01	1.790E+00	-9.650E-01	-1.150E-01	2.980E-02	2.020E+02	6.640E+01	5.410E+02	4.340E+03
48.80	1.650E+01	4.980E+03	1.210E+01	2.490E+00	-5.560E-01	1.670E+00	-9.550E-01	-3.680E-02	6.090E-02	2.020E+02	5.930E+01	5.270E+02	4.370E+03
48.85	1.620E+01	4.990E+03	1.200E+01	2.570E+00	-5.960E-01	1.550E+00	-9.470E-01	6.770E-02	7.930E-02	2.000E+02	5.450E+01	5.140E+02	4.300E+03
48.90	1.620E+01	4.990E+03	1.200E+01	2.630E+00	-6.280E-01	1.420E+00	-9.400E-01	1.940E-01	8.590E-02	1.970E+02	5.430E+01	5.030E+02	4.160E+03
48.95	1.590E+01	4.990E+03	1.200E+01	2.680E+00	-6.460E-01	1.300E+00	-9.290E-01	3.400E-01	8.120E-02	1.970E+02	5.110E+01	4.940E+02	4.030E+03
49.00	1.580E+01	4.980E+03	1.200E+01	2.700E+00	-6.510E-01	1.170E+00	-9.100E-01	5.020E-01	6.450E-02	2.000E+02	4.400E+01	4.840E+02	3.940E+03
49.05	1.560E+01	4.970E+03	1.200E+01	2.720E+00	-6.540E-01	1.040E+00	-8.800E-01	6.770E-01	3.410E-02	2.040E+02	3.780E+01	4.760E+02	3.900E+03
49.10	1.580E+01	4.960E+03	1.200E+01	2.750E+00	-6.640E-01	8.810E-01	-8.360E-01	8.610E-01	-1.170E-02	2.100E+02	3.060E+01	4.700E+02	3.920E+03
49.15	1.620E+01	4.960E+03	1.200E+01	2.780E+00	-6.840E-01	7.120E-01	-7.810E-01	1.050E+00	-6.940E-02	2.160E+02	2.040E+01	4.630E+02	4.010E+03
49.20	1.660E+01	4.960E+03	1.200E+01	2.820E+00	-7.150E-01	5.510E-01	-7.180E-01	1.220E+00	-1.320E-01	2.120E+02	1.440E+01	4.580E+02	4.140E+03
49.25	1.630E+01	4.960E+03	1.200E+01	2.870E+00	-7.590E-01	4.160E-01	-6.520E-01	1.380E+00	-1.950E-01	2.100E+02	7.370E+00	4.530E+02	4.270E+03
49.30	1.650E+01	4.970E+03	1.200E+01	2.940E+00	-8.120E-01	3.100E-01	-5.850E-01	1.510E+00	-2.490E-01	2.100E+02	-1.160E+00	4.490E+02	4.370E+03
49.35	1.670E+01	4.980E+03	1.200E+01	3.020E+00	-8.690E-01	2.370E-01	-5.200E-01	1.630E+00	-2.880E-01	2.070E+02	-1.350E+01	4.440E+02	4.410E+03
49.40	1.660E+01	4.990E+03	1.200E+01	3.070E+00	-9.220E-01	2.010E-01	-4.610E-01	1.720E+00	-3.120E-01	2.070E+02	-2.380E+01	4.410E+02	4.390E+03
49.45	1.600E+01	4.990E+03	1.200E+01	3.090E+00	-9.660E-01	1.960E-01	-4.130E-01	1.800E+00	-3.200E-01	2.060E+02	-3.600E+01	4.390E+02	4.320E+03
49.50	1.630E+01	5.000E+03	1.200E+01	3.080E+00	-1.000E+00	2.150E-01	-3.800E-01	1.860E+00	-3.150E-01	2.080E+02	-4.860E+01	4.380E+02	4.220E+03
49.55	1.680E+01	5.000E+03	1.200E+01	3.050E+00	-1.040E+00	2.480E-01	-3.610E-01	1.900E+00	-2.970E-01	2.110E+02	-6.140E+01	4.370E+02	4.120E+03
49.60	1.640E+01	4.990E+03	1.200E+01	3.010E+00	-1.060E+00	2.740E-01	-3.540E-01	1.910E+00	-2.700E-01	2.080E+02	-7.150E+01	4.350E+02	4.050E+03
49.65	1.620E+01	4.990E+03	1.200E+01	2.960E+00	-1.080E+00	2.870E-01	-3.560E-01	1.890E+00	-2.360E-01	1.970E+02	-7.870E+01	4.330E+02	4.000E+03
49.70	1.550E+01	4.980E+03	1.200E+01	2.880E+00	-1.080E+00	2.880E-01	-3.660E-01	1.860E+00	-1.990E-01	1.910E+02	-9.040E+01	4.310E+02	4.020E+03
49.75	1.590E+01	4.970E+03	1.200E+01	2.780E+00	-1.080E+00	2.760E-01	-3.820E-01	1.820E+00	-1.630E-01	1.810E+02	-9.950E+01	4.300E+02	4.080E+03
49.80	1.610E+01	4.970E+03	1.200E+01	2.650E+00	-1.060E+00	2.550E-01	-4.000E-01	1.800E+00	-1.340E-01	1.750E+02	-1.080E+02	4.320E+02	4.170E+03
49.85	1.540E+01	4.980E+03	1.200E+01	2.530E+00	-1.030E+00	2.320E-01	-4.160E-01	1.780E+00	-1.120E-01	1.770E+02	-1.170E+02	4.350E+02	4.280E+03
49.90	1.540E+01	4.980E+03	1.200E+01	2.420E+00	-1.020E+00	2.060E-01	-4.260E-01	1.780E+00	-9.860E-02	1.710E+02	-1.240E+02	4.410E+02	4.360E+03
49.95	1.530E+01	4.990E+03	1.200E+01	2.340E+00	-1.000E+00	1.740E-01	-4.270E-01	1.790E+00	-1.020E-01	1.690E+02	-1.290E+02	4.470E+02	4.340E+03
50.00	1.560E+01	4.990E+03	1.200E+01	2.280E+00	-9.940E-01	1.350E-01	-4.130E-01	1.830E+00	-1.180E-01	1.650E+02	-1.340E+02	4.510E+02	4.260E+03
50.05	1.610E+01	4.990E+03	1.200E+01	2.230E+00	-9.830E-01	9.440E-02	-3.790E-01	1.880E+00	-1.390E-01	1.600E+02	-1.410E+02	4.560E+02	4.200E+03
50.10	1.580E+01	4.990E+03	1.200E+01	2.210E+00	-9.770E-01	6.340E-02	-3.310E-01	1.930E+00	-1.630E-01	1.520E+02	-1.490E+02	4.630E+02	4.130E+03
50.15	1.570E+01	4.990E+03	1.200E+01	2.190E+00	-9.820E-01	5.290E-02	-2.780E-01	1.970E+00	-1.930E-01	1.440E+02	-1.550E+02	4.680E+02	4.040E+03
50.20	1.580E+01	4.980E+03	1.190E+01	2.160E+00	-9.950E-01	6.370E-02	-2.230E-01	2.000E+00	-2.300E-01	1.380E+02	-1.580E+02	4.750E+02	3.970E+03
50.25	1.610E+01	4.970E+03	1.190E+01	2.110E+00	-1.010E+00	9.220E-02	-1.680E-01	2.040E+00	-2.720E-01	1.400E+02	-1.670E+02	4.830E+02	3.960E+03
50.30	1.640E+01	4.970E+03	1.190E+01	2.040E+00	-1.020E+00	1.310E-01	-1.140E-01	2.100E+00	-3.240E-01	1.390E+02	-1.750E+02	4.920E+02	4.010E+03
50.35	1.600E+01	4.960E+03	1.190E+01	1.940E+00	-1.020E+00	1.760E-01	-6.600E-02	2.190E+00	-3.860E-01	1.390E+02	-1.840E+02	4.970E+02	4.070E+03
50.40	1.620E+01	4.960E+03	1.190E+01	1.810E+00	-1.010E+00	2.310E-01	-2.720E-02	2.310E+00	-4.510E-01	1.380E+02	-1.940E+02	5.040E+02	4.150E+03
50.45	1.620E+01	4.960E+03	1.190E+01	1.650E+00	-9.950E-01	3.020E-01	-2.040E-03	2.440E+00	-5.170E-01	1.360E+02	-2.030E+02	5.130E+02	4.210E+03
50.50	1.630E+01	4.960E+03	1.190E+01	1.460E+00	-9.660E-01	3.900E-01	7.120E-03	2.570E+00	-5.830E-01	1.280E+02	-2.080E+02	5.190E+02	4.230E+03
50.55	1.620E+01	4.970E+03	1.190E+01	1.270E+00	-9.290E-01	4.840E-01	3.540E-03	2.710E+00	-6.430E-01	1.230E+02	-2.120E+02	5.250E+02	4.220E+03
50.60	1.590E+01	4.970E+03	1.190E+01	1.070E+00	-8.800E-01	5.770E-01	-6.580E-03	2.830E+00	-6.930E-01	1.150E+02	-2.130E+02	5.360E+02	4.220E+03
50.65	1.570E+01	4.970E+03	1.190E+01	8.800E-01	-8.190E-01	6.650E-01	-2.070E-02	2.940E+00	-7.310E-01	9.800E+01	-2.100E+02	5.430E+02	4.220E+03
50.70	1.580E+01	4.970E+03	1.190E+01	7.020E-01	-7.490E-01	7.590E-01	-4.310E-02	3.030E+00	-7.570E-01	8.840E+01	-2.110E+02	5.500E+02	4.210E+03
50.75	1.540E+01	4.970E+03	1.190E+01	5.420E-01	-6.760E-01	8.650E-01	-7.690E-02	3.090E+00	-7.730E-01	7.750E+01	-2.060E+02	5.640E+02	4.160E+03
50.80	1.620E+01	4.970E+03	1.180E+01	4.000E-01	-6.060E-01	9.810E-01	-1.190E-01	3.120E+00	-7.870E-01	6.610E+01	-2.000E+02	5.740E+02	4.100E+03
50.85	1.680E+01	4.970E+03	1.180E+01	2.720E-01	-5.390E-01	1.100E+00	-1.640E-01	3.140E+00	-8.010E-01	6.300E+01	-1.970E+02	5.830E+02	4.070E+03
50.90	1.700E+01	4.960E+03	1.180E+01	1.650E-01	-4.820E-01	1.210E+00	-2.040E-01	3.150E+00	-8.220E-01	6.810E+01	-1.920E+02	5.980E+02	4.090E+03
50.95	1.700E+01	4.960E+03	1.180E+01	9.110E-02	-4.370E-01	1.320E+00	-2.350E-01	3.170E+00	-8.550E-01	7.310E+01	-1.910E+02	6.090E+02	4.150E+03
51.00	1.660E+01	4.960E+03	1.180E+01	5.740E-02	-4.070E-01	1.400E+00	-2.540E-01	3.190E+00	-8.980E-01	7.800E+01	-1.880E+02	6.190E+02	4.210E+03
51.05	1.630E+01	4.960E+03	1.180E+01	6.700E-02	-3.950E-01	1.480E+00	-2.590E-01	3.210E+00	-9.420E-01	7.890E+01	-1.850E+02	6.310E+02	4.260E+03
51.10	1.660E+01	4.970E+03	1.180E+01	1.190E-01	-4.000E-01	1.540E+00	-2.490E-01	3.200E+00	-9.820E-01	7.610E+01	-1.810E+02	6.430E+02	4.290E+03
51.15	1.710E+01	4.970E+03	1.180E+01	2.050E-01	-4.220E-01	1.580E+00	-2.240E-01	3.160E+00	-1.010E+00	8.060E+01	-1.800E+02	6.540E+02	4.300E+03
51.20	1.710E+01	4.970E+03	1.180E+01	3.060E-01	-4.520E-01	1.600E+00	-1.850E-01	3.080E+00	-1.040E+00	8.580E+01	-1.770E+02	6.660E+02	4.310E+03
51.25	1.680E+01	4.980E+03	1.180E+01	4.100E-01	-4.860E-01	1.610E+00	-1.350E-01	2.990E+00	-1.050E+00	9.230E+01	-1.780E+02	6.750E+02	4.320E+03
51.30	1.700E+01	4.980E+03	1.180E+01	5.070E-01	-5.210E-01	1.610E+00	-8.430E-02	2.890E+00	-1.050E+00	9.640E+01	-1.750E+02	6.840E+02	4.290E+03
51.35	1.730E+01	4.980E+03	1.180E+01	5.860E-01	-5.540E-01	1.610E+00	-3.680E-02	2.800E+00	-1.050E+00	1.030E+02	-1.740E+02	6.920E+02	4.220E+03
51.40	1.710E+01	4.980E+03	1.180E+01	6.430E-01	-5.810E-01	1.600E+00	2.660E-03	2.710E+00	-1.040E+00	1.120E+02	-1.730E+02	7.010E+02	4.160E+03
51.45	1.680E+01	4.980E+03	1.180E+01	6.820E-01	-6.020E-01	1.600E+00	2.660E-02	2.620E+00	-1.020E+00	1.160E+02	-1.740E+02	7.090E+02	4.110E+03
51.50	1.640E+01	4.970E+03	1.180E+01	7.050E-01	-6.160E-01	1.630E+00	2.800E-02	2.530E+00	-1.000E+00	1.190E+02	-1.710E+02	7.150E+02	4.090E+03
51.55	1.640E+01	4.970E+03	1.180E+01	7.220E-01	-6.210E-01	1.690E+00	8.440E-03	2.430E+00	-9.790E-01	1.250E+02	-1.680E+02	7.210E+02	4.140E+03
51.60	1.650E+01	4.970E+03	1.180E+01	7.430E-01	-6.180E-01	1.760E+00	-2.910E-02	2.320E+00	-9.520E-01	1.250E+02	-1.630E+02	7.250E+02	4.220E+03
51.65	1.630E+01	4.970E+03	1.180E+01	7.670E-01	-6.070E-01	1.860E+00	-8.470E-02	2.210E+00	-9.270E-01	1.230E+02	-1.530E+02	7.260E+02	4.250E+03
51.70	1.670E+01	4.970E+03	1.170E+01	7.870E-01	-5.850E-01	1.960E+00	-1.500E-01	2.110E+00	-9.050E-01	1.220E+02	-1.400E+02	7.290E+02	4.250E+03
51.75	1.640E+01	4.970E+03	1.180E+01	8.050E-01	-5.490E-01	2.050E+00	-2.150E-01	2.030E+00	-8.860E-01	1.190E+02	-1.260E+02	7.330E+02	4.280E+03
51.80	1.600E+01	4.970E+03	1.180E+01	8.230E-01	-4.980E-01	2.140E+00	-2.750E-01	1.970E+00	-8.690E-01	1.160E+02	-1.150E+02	7.370E+02	4.330E+03
51.85	1.610E+01	4.980E+03	1.180E+01	8.370E-01	-4.410E-01	2.240E+00	-3.350E-01	1.910E+00	-8.600E-01	1.160E+02	-1.020E+02	7.400E+02	4.350E+03
51.90	1.640E+01	4.980E+03	1.170E+01	8.430E-01	-3.820E-01	2.340E+00	-3.950E-01	1.850E+00	-8.550E-01	1.200E+02	-8.560E+01	7.440E+02	4.310E+03
51.95	1.640E+01	4.980E+03	1.170E+01	8.410E-01	-3.210E-01	2.470E+00	-4.520E-01	1.770E+00	-8.490E-01	1.290E+02	-7.350E+01	7.470E+02	4.260E+03
52.00	1.600E+01	4.980E+03	1.180E+01	8.390E-01	-2.630E-01	2.600E+00	-5.020E-01	1.670E+00	-8.410E-01	1.350E+02	-6.140E+01	7.490E+02	4.240E+03
52.05	1.580E+01	4.980E+03	1.170E+01	8.460E-01	-2.160E-01	2.730E+00	-5.450E-01	1.560E+00	-8.340E-01	1.380E+02	-4.910E+01	7.510E+02	4.230E+03
52.10	1.610E+01	4.980E+03	1.170E+01	8.700E-01	-1.880E-01	2.870E+00	-5.830E-01	1.450E+00	-8.290E-01	1.400E+02	-3.840E+01	7.530E+02	4.210E+03
52.15	1.630E+01	4.980E+03	1.170E+01	9.120E-01	-1.800E-01	3.000E+00	-6.200E-01	1.350E+00	-8.310E-01	1.400E+02	-2.980E+01	7.550E+02	4.180E+03
52.20	1.660E+01	4.970E+03	1.170E+01	9.730E-01	-1.910E-01	3.100E+00	-6.520E-01	1.270E+00	-8.410E-01	1.350E+02	-1.800E+01	7.570E+02	4.180E+03
52.25	1.730E+01	4.970E+03	1.170E+01	1.040E+00	-2.110E-01	3.180E+00	-6.750E-01	1.210E+00	-8.550E-01	1.320E+02	-8.000E+00	7.570E+02	4.220E+03
52.30	1.750E+01	4.970E+03	1.170E+01	1.110E+00	-2.300E-01	3.220E+00	-6.900E-01	1.160E+00	-8.610E-01	1.340E+02	-4.230E+00	7.560E+02	4.310E+03
52.35	1.770E+01	4.980E+03	1.170E+01	1.160E+00	-2.410E-01	3.250E+00	-7.020E-01	1.090E+00	-8.500E-01	1.390E+02	-9.740E-01	7.530E+02	4.410E+03
52.40	1.790E+01	4.990E+03	1.170E+01	1.200E+00	-2.450E-01	3.280E+00	-7.160E-01	1.000E+00	-8.220E-01	1.430E+02	5.620E+00	7.490E+02	4.470E+03
52.45	1.780E+01	4.990E+03	1.170E+01	1.250E+00	-2.460E-01	3.310E+00	-7.380E-01	9.010E-01	-7.780E-01	1.480E+02	1.120E+01	7.450E+02	4.480E+03
52.50	1.760E+01	5.000E+03	1.180E+01	1.320E+00	-2.460E-01	3.360E+00	-7.710E-01	7.970E-01	-7.230E-01	1.530E+02	1.930E+01	7.420E+02	4.450E+03
52.55	1.730E+01	5.010E+03	1.180E+01	1.400E+00	-2.440E-01	3.420E+00	-8.110E-01	7.020E-01	-6.660E-01	1.600E+02	2.680E+01	7.360E+02	4.390E+03
52.60	1.730E+01	5.010E+03	1.180E+01	1.480E+00	-2.390E-01	3.450E+00	-8.550E-01	6.390E-01	-6.180E-01	1.660E+02	3.530E+01	7.300E+02	4.300E+03
52.65	1.760E+01	5.000E+03	1.170E+01	1.560E+00	-2.340E-01	3.450E+00	-8.980E-01	6.180E-01	-5.860E-01	1.700E+02	4.330E+01	7.250E+02	4.190E+03
52.70	1.740E+01	5.000E+03	1.170E+01	1.640E+00	-2.270E-01	3.410E+00	-9.370E-01	6.380E-01	-5.750E-01	1.690E+02	5.430E+01	7.160E+02	4.090E+03
52.75	1.760E+01	4.990E+03	1.170E+01	1.700E+00	-2.190E-01	3.340E+00	-9.690E-01	6.960E-01	-5.840E-01	1.690E+02	6.500E+01	7.070E+02	4.040E+03
52.80	1.760E+01	4.980E+03	1.170E+01	1.750E+00	-2.060E-01	3.260E+00	-9.960E-01	7.800E-01	-6.040E-01	1.670E+02	7.440E+01	7.010E+02	4.090E+03
52.85	1.750E+01	4.970E+03	1.170E+01	1.780E+00	-1.910E-01	3.190E+00	-1.020E+00	8.740E-01	-6.340E-01	1.660E+02	8.300E+01	6.930E+02	4.210E+03
52.90	1.720E+01	4.980E+03	1.170E+01	1.810E+00	-1.750E-01	3.130E+00	-1.040E+00	9.650E-01	-6.660E-01	1.680E+02	8.950E+01	6.840E+02	4.350E+03
52.95	1.700E+01	4.980E+03	1.170E+01	1.820E+00	-1.580E-01	3.090E+00	-1.060E+00	1.040E+00	-6.960E-01	1.690E+02	9.740E+01	6.770E+02	4.460E+03
53.00	1.700E+01	4.990E+03	1.170E+01	1.810E+00	-1.370E-01	3.040E+00	-1.070E+00	1.100E+00	-7.200E-01	1.690E+02	1.040E+02	6.670E+02	4.510E+03
53.05	1.730E+01	5.000E+03	1.170E+01	1.790E+00	-1.110E-01	2.990E+00	-1.050E+00	1.140E+00	-7.330E-01	1.640E+02	1.130E+02	6.580E+02	4.520E+03
53.10	1.780E+01	5.010E+03	1.170E+01	1.770E+00	-8.250E-02	2.940E+00	-1.030E+00	1.160E+00	-7.360E-01	1.590E+02	1.190E+02	6.490E+02	4.470E+03
53.15	1.790E+01	5.010E+03	1.170E+01	1.750E+00	-5.880E-02	2.900E+00	-1.010E+00	1.180E+00	-7.290E-01	1.600E+02	1.220E+02	6.390E+02	4.360E+03
53.20	1.770E+01	5.010E+03	1.170E+01	1.750E+00	-4.680E-02	2.880E+00	-9.970E-01	1.180E+00	-7.160E-01	1.620E+02	1.210E+02	6.290E+02	4.230E+03
53.25	1.740E+01	5.000E+03	1.170E+01	1.770E+00	-5.210E-02	2.850E+00	-9.870E-01	1.180E+00	-7.020E-01	1.620E+02	1.230E+02	6.210E+02	4.090E+03
53.30	1.730E+01	4.990E+03	1.170E+01	1.810E+00	-7.290E-02	2.810E+00	-9.860E-01	1.170E+00	-6.900E-01	1.620E+02	1.240E+02	6.090E+02	4.010E+03
53.35	1.710E+01	4.980E+03	1.170E+01	1.850E+00	-1.010E-01	2.760E+00	-9.880E-01	1.180E+00	-6.750E-01	1.680E+02	1.210E+02	6.000E+02	4.020E+03
53.40	1.680E+01	4.970E+03	1.170E+01	1.880E+00	-1.280E-01	2.670E+00	-9.890E-01	1.170E+00	-6.510E-01	1.790E+02	1.170E+02	5.920E+02	4.120E+03
53.45	1.660E+01	4.970E+03	1.170E+01	1.920E+00	-1.560E-01	2.550E+00	-9.870E-01	1.160E+00	-6.180E-01	1.870E+02	1.110E+02	5.800E+02	4.290E+03
53.50	1.700E+01	4.970E+03	1.170E+01	1.980E+00	-1.880E-01	2.410E+00	-9.820E-01	1.150E+00	-5.740E-01	1.980E+02	1.040E+02	5.680E+02	4.450E+03
53.55	1.690E+01	4.980E+03	1.170E+01	2.070E+00	-2.250E-01	2.250E+00	-9.740E-01	1.110E+00	-5.190E-01	2.020E+02	1.000E+02	5.590E+02	4.570E+03
53.60	1.660E+01	5.000E+03	1.170E+01	2.190E+00	-2.690E-01	2.110E+00	-9.650E-01	1.060E+00	-4.570E-01	2.050E+02	9.800E+01	5.480E+02	4.600E+03
53.65	1.660E+01	5.010E+03	1.170E+01	2.340E+00	-3.160E-01	1.980E+00	-9.590E-01	1.010E+00	-3.930E-01	1.990E+02	9.660E+01	5.350E+02	4.550E+03
53.70	1.630E+01	5.010E+03	1.170E+01	2.490E+00	-3.660E-01	1.880E+00	-9.560E-01	9.700E-01	-3.350E-01	1.980E+02	9.710E+01	5.250E+02	4.410E+03
53.75	1.630E+01	5.010E+03	1.170E+01	2.630E+00	-4.110E-01	1.800E+00	-9.550E-01	9.430E-01	-2.830E-01	2.000E+02	9.480E+01	5.150E+02	4.240E+03
53.80	1.650E+01	5.010E+03	1.170E+01	2.750E+00	-4.510E-01	1.710E+00	-9.500E-01	9.330E-01	-2.400E-01	2.030E+02	9.040E+01	5.040E+02	4.110E+03
53.85	1.610E+01	5.000E+03	1.170E+01	2.830E+00	-4.850E-01	1.630E+00	-9.410E-01	9.350E-01	-2.060E-01	2.130E+02	8.230E+01	4.950E+02	4.050E+03
53.90	1.560E+01	4.990E+03	1.170E+01	2.900E+00	-5.180E-01	1.530E+00	-9.250E-01	9.450E-01	-1.800E-01	2.220E+02	7.170E+01	4.870E+02	4.080E+03
53.95	1.630E+01	4.980E+03	1.170E+01	2.970E+00	-5.570E-01	1.430E+00	-9.030E-01	9.570E-01	-1.640E-01	2.280E+02	6.320E+01	4.780E+02	4.170E+03
54.00	1.620E+01	4.980E+03	1.170E+01	3.050E+00	-6.070E-01	1.320E+00	-8.770E-01	9.680E-01	-1.580E-01	2.290E+02	5.770E+01	4.690E+02	4.290E+03
54.05	1.610E+01	4.980E+03	1.170E+01	3.150E+00	-6.650E-01	1.220E+00	-8.500E-01	9.840E-01	-1.580E-01	2.250E+02	5.080E+01	4.590E+02	4.400E+03
54.10	1.580E+01	4.990E+03	1.170E+01	3.250E+00	-7.260E-01	1.140E+00	-8.220E-01	1.010E+00	-1.600E-01	2.210E+02	4.640E+01	4.500E+02	4.480E+03
54.15	1.510E+01	5.000E+03	1.170E+01	3.340E+00	-7.800E-01	1.100E+00	-7.960E-01	1.050E+00	-1.590E-01	2.110E+02	3.810E+01	4.400E+02	4.540E+03
54.20	1.530E+01	5.000E+03	1.170E+01	3.390E+00	-8.200E-01	1.080E+00	-7.760E-01	1.110E+00	-1.560E-01	2.050E+02	2.980E+01	4.330E+02	4.520E+03
54.25	1.530E+01	5.010E+03	1.170E+01	3.390E+00	-8.440E-01	1.110E+00	-7.650E-01	1.200E+00	-1.570E-01	2.040E+02	2.420E+01	4.290E+02	4.440E+03
54.30	1.490E+01	5.010E+03	1.170E+01	3.340E+00	-8.530E-01	1.160E+00	-7.650E-01	1.310E+00	-1.610E-01	2.040E+02	1.300E+01	4.230E+02	4.340E+03
54.35	1.470E+01	5.010E+03	1.170E+01	3.290E+00	-8.570E-01	1.230E+00	-7.700E-01	1.440E+00	-1.680E-01	2.080E+02	2.870E+00	4.180E+02	4.240E+03
54.40	1.490E+01	5.010E+03	1.170E+01	3.260E+00	-8.640E-01	1.310E+00	-7.830E-01	1.570E+00	-1.770E-01	2.100E+02	-5.610E+00	4.150E+02	4.180E+03
54.45	1.510E+01	5.000E+03	1.170E+01	3.240E+00	-8.780E-01	1.380E+00	-8.020E-01	1.690E+00	-1.840E-01	2.070E+02	-1.420E+01	4.110E+02	4.160E+03
54.50	1.570E+01	4.990E+03	1.170E+01	3.240E+00	-8.970E-01	1.450E+00	-8.250E-01	1.770E+00	-1.830E-01	2.020E+02	-2.170E+01	4.080E+02	4.200E+03
54.55	1.570E+01	4.990E+03	1.170E+01	3.230E+00	-9.150E-01	1.520E+00	-8.520E-01	1.830E+00	-1.760E-01	1.940E+02	-3.000E+01	4.050E+02	4.290E+03
54.60	1.610E+01	4.990E+03	1.170E+01	3.220E+00	-9.320E-01	1.600E+00	-8.830E-01	1.860E+00	-1.640E-01	1.890E+02	-3.860E+01	4.040E+02	4.380E+03
54.65	1.610E+01	5.000E+03	1.170E+01	3.180E+00	-9.450E-01	1.690E+00	-9.180E-01	1.870E+00	-1.520E-01	1.820E+02	-4.540E+01	4.030E+02	4.440E+03
54.70	1.580E+01	5.000E+03	1.170E+01	3.120E+00	-9.530E-01	1.770E+00	-9.510E-01	1.870E+00	-1.390E-01	1.910E+02	-5.780E+01	4.040E+02	4.480E+03
54.75	1.620E+01	5.010E+03	1.170E+01	3.050E+00	-9.560E-01	1.840E+00	-9.720E-01	1.870E+00	-1.210E-01	1.940E+02	-6.700E+01	4.060E+02	4.520E+03
54.80	1.660E+01	5.020E+03	1.180E+01	2.980E+00	-9.570E-01	1.900E+00	-9.780E-01	1.870E+00	-1.010E-01	1.970E+02	-7.810E+01	4.080E+02	4.520E+03
54.85	1.610E+01	5.020E+03	1.180E+01	2.920E+00	-9.600E-01	1.940E+00	-9.690E-01	1.880E+00	-8.110E-02	2.000E+02	-9.000E+01	4.110E+02	4.460E+03
54.90	1.650E+01	5.020E+03	1.180E+01	2.870E+00	-9.650E-01	1.960E+00	-9.500E-01	1.880E+00	-6.480E-02	1.960E+02	-9.920E+01	4.150E+02	4.360E+03
54.95	1.660E+01	5.020E+03	1.180E+01	2.810E+00	-9.710E-01	1.970E+00	-9.250E-01	1.880E+00	-5.500E-02	1.880E+02	-1.070E+02	4.180E+02	4.260E+03
55.00	1.620E+01	5.020E+03	1.180E+01	2.740E+00	-9.760E-01	2.010E+00	-9.020E-01	1.890E+00	-5.400E-02	1.780E+02	-1.140E+02	4.210E+02	4.180E+03
55.05	1.620E+01	5.010E+03	1.180E+01	2.650E+00	-9.770E-01	2.060E+00	-8.830E-01	1.900E+00	-6.110E-02	1.690E+02	-1.230E+02	4.240E+02	4.170E+03
55.10	1.620E+01	5.000E+03	1.180E+01	2.530E+00	-9.740E-01	2.130E+00	-8.720E-01	1.930E+00	-7.740E-02	1.590E+02	-1.300E+02	4.290E+02	4.200E+03
55.15	1.610E+01	5.000E+03	1.180E+01	2.400E+00	-9.680E-01	2.210E+00	-8.640E-01	1.970E+00	-1.030E-01	1.560E+02	-1.380E+02	4.350E+02	4.250E+03
55.20	1.620E+01	5.000E+03	1.180E+01	2.260E+00	-9.560E-01	2.290E+00	-8.580E-01	2.040E+00	-1.360E-01	1.520E+02	-1.450E+02	4.430E+02	4.340E+03
55.25	1.610E+01	5.000E+03	1.180E+01	2.130E+00	-9.350E-01	2.370E+00	-8.500E-01	2.140E+00	-1.750E-01	1.490E+02	-1.530E+02	4.500E+02	4.450E+03
55.30	1.560E+01	5.010E+03	1.180E+01	1.990E+00	-9.070E-01	2.420E+00	-8.390E-01	2.240E+00	-2.170E-01	1.410E+02	-1.580E+02	4.570E+02	4.520E+03
55.35	1.570E+01	5.020E+03	1.180E+01	1.870E+00	-8.800E-01	2.460E+00	-8.280E-01	2.350E+00	-2.590E-01	1.440E+02	-1.660E+02	4.630E+02	4.530E+03
55.40	1.580E+01	5.030E+03	1.180E+01	1.770E+00	-8.540E-01	2.480E+00	-8.130E-01	2.440E+00	-2.960E-01	1.450E+02	-1.720E+02	4.720E+02	4.510E+03
55.45	1.570E+01	5.030E+03	1.180E+01	1.680E+00	-8.290E-01	2.490E+00	-7.930E-01	2.520E+00	-3.280E-01	1.400E+02	-1.760E+02	4.800E+02	4.440E+03
55.50	1.600E+01	5.030E+03	1.180E+01	1.610E+00	-8.080E-01	2.480E+00	-7.670E-01	2.600E+00	-3.620E-01	1.390E+02	-1.790E+02	4.880E+02	4.330E+03
55.55	1.630E+01	5.030E+03	1.180E+01	1.540E+00	-7.900E-01	2.450E+00	-7.340E-01	2.710E+00	-4.000E-01	1.410E+02	-1.830E+02	5.010E+02	4.240E+03
55.60	1.600E+01	5.020E+03	1.180E+01	1.480E+00	-7.770E-01	2.390E+00	-6.940E-01	2.820E+00	-4.450E-01	1.440E+02	-1.870E+02	5.120E+02	4.170E+03
55.65	1.600E+01	5.010E+03	1.180E+01	1.430E+00	-7.730E-01	2.310E+00	-6.470E-01	2.920E+00	-4.950E-01	1.420E+02	-1.910E+02	5.210E+02	4.170E+03
55.70	1.610E+01	5.010E+03	1.180E+01	1.410E+00	-7.800E-01	2.210E+00	-5.960E-01	3.020E+00	-5.480E-01	1.420E+02	-1.970E+02	5.320E+02	4.220E+03
55.75	1.640E+01	5.010E+03	1.180E+01	1.420E+00	-7.990E-01	2.100E+00	-5.410E-01	3.120E+00	-6.040E-01	1.380E+02	-2.000E+02	5.430E+02	4.310E+03
55.80	1.620E+01	5.010E+03	1.180E+01	1.450E+00	-8.240E-01	2.020E+00	-4.860E-01	3.230E+00	-6.630E-01	1.340E+02	-2.030E+02	5.510E+02	4.400E+03
55.85	1.610E+01	5.010E+03	1.180E+01	1.490E+00	-8.520E-01	1.960E+00	-4.300E-01	3.330E+00	-7.210E-01	1.330E+02	-2.070E+02	5.620E+02	4.490E+03
55.90	1.660E+01	5.020E+03	1.180E+01	1.530E+00	-8.740E-01	1.920E+00	-3.770E-01	3.430E+00	-7.780E-01	1.300E+02	-2.080E+02	5.750E+02	4.530E+03
55.95	1.620E+01	5.030E+03	1.180E+01	1.540E+00	-8.870E-01	1.920E+00	-3.300E-01	3.520E+00	-8.330E-01	1.290E+02	-2.100E+02	5.840E+02	4.500E+03
56.00	1.630E+01	5.030E+03	1.180E+01	1.530E+00	-8.920E-01	1.920E+00	-2.870E-01	3.610E+00	-8.860E-01	1.330E+02	-2.120E+02	5.950E+02	4.420E+03
56.05	1.630E+01	5.030E+03	1.190E+01	1.530E+00	-8.950E-01	1.930E+00	-2.480E-01	3.680E+00	-9.330E-01	1.440E+02	-2.150E+02	6.070E+02	4.340E+03
56.10	1.610E+01	5.030E+03	1.190E+01	1.550E+00	-8.980E-01	1.920E+00	-2.080E-01	3.730E+00	-9.720E-01	1.480E+02	-2.160E+02	6.180E+02	4.250E+03
56.15	1.650E+01	5.030E+03	1.190E+01	1.590E+00	-9.020E-01	1.880E+00	-1.640E-01	3.760E+00	-1.010E+00	1.550E+02	-2.180E+02	6.270E+02	4.190E+03
56.20	1.660E+01	5.020E+03	1.190E+01	1.650E+00	-9.100E-01	1.810E+00	-1.180E-01	3.770E+00	-1.030E+00	1.580E+02	-2.140E+02	6.400E+02	4.170E+03
56.25	1.630E+01	5.010E+03	1.190E+01	1.720E+00	-9.190E-01	1.720E+00	-7.440E-02	3.760E+00	-1.060E+00	1.650E+02	-2.130E+02	6.490E+02	4.190E+03
56.30	1.640E+01	5.010E+03	1.190E+01	1.790E+00	-9.290E-01	1.640E+00	-3.880E-02	3.740E+00	-1.070E+00	1.750E+02	-2.130E+02	6.600E+02	4.280E+03
56.35	1.650E+01	5.010E+03	1.190E+01	1.860E+00	-9.380E-01	1.590E+00	-1.770E-02	3.710E+00	-1.090E+00	1.820E+02	-2.100E+02	6.710E+02	4.380E+03
56.40	1.650E+01	5.020E+03	1.190E+01	1.910E+00	-9.440E-01	1.600E+00	-1.550E-02	3.670E+00	-1.100E+00	1.880E+02	-2.090E+02	6.800E+02	4.460E+03
56.45	1.650E+01	5.020E+03	1.190E+01	1.960E+00	-9.510E-01	1.650E+00	-3.020E-02	3.630E+00	-1.120E+00	1.950E+02	-2.040E+02	6.910E+02	4.470E+03
56.50	1.610E+01	5.030E+03	1.190E+01	2.010E+00	-9.590E-01	1.740E+00	-5.140E-02	3.570E+00	-1.130E+00	1.990E+02	-1.980E+02	7.000E+02	4.440E+03
56.55	1.620E+01	5.030E+03	1.190E+01	2.090E+00	-9.680E-01	1.830E+00	-6.770E-02	3.490E+00	-1.130E+00	1.980E+02	-1.900E+02	7.090E+02	4.390E+03
56.60	1.600E+01	5.030E+03	1.190E+01	2.190E+00	-9.800E-01	1.880E+00	-7.140E-02	3.390E+00	-1.120E+00	1.960E+02	-1.810E+02	7.170E+02	4.340E+03
56.65	1.610E+01	5.030E+03	1.190E+01	2.320E+00	-9.960E-01	1.890E+00	-5.920E-02	3.270E+00	-1.110E+00	1.950E+02	-1.750E+02	7.240E+02	4.320E+03
56.70	1.630E+01	5.030E+03	1.190E+01	2.470E+00	-1.020E+00	1.870E+00	-3.520E-02	3.150E+00	-1.090E+00	2.010E+02	-1.660E+02	7.340E+02	4.320E+03
56.75	1.630E+01	5.030E+03	1.190E+01	2.620E+00	-1.040E+00	1.820E+00	-4.210E-03	3.020E+00	-1.070E+00	2.090E+02	-1.610E+02	7.420E+02	4.330E+03
56.80	1.590E+01	5.030E+03	1.190E+01	2.770E+00	-1.060E+00	1.770E+00	2.680E-02	2.900E+00	-1.050E+00	2.150E+02	-1.540E+02	7.480E+02	4.340E+03
56.85	1.570E+01	5.030E+03	1.190E+01	2.900E+00	-1.080E+00	1.730E+00	4.560E-02	2.800E+00	-1.040E+00	2.270E+02	-1.450E+02	7.540E+02	4.320E+03
56.90	1.590E+01	5.030E+03	1.190E+01	3.030E+00	-1.100E+00	1.750E+00	4.320E-02	2.700E+00	-1.040E+00	2.400E+02	-1.390E+02	7.580E+02	4.300E+03
56.95	1.590E+01	5.030E+03	1.190E+01	3.150E+00	-1.110E+00	1.820E+00	1.660E-02	2.590E+00	-1.040E+00	2.500E+02	-1.310E+02	7.600E+02	4.280E+03
57.00	1.610E+01	5.030E+03	1.200E+01	3.250E+00	-1.130E+00	1.930E+00	-2.620E-02	2.480E+00	-1.030E+00	2.560E+02	-1.210E+02	7.630E+02	4.300E+03
57.05	1.610E+01	5.030E+03	1.200E+01	3.340E+00	-1.130E+00	2.060E+00	-7.700E-02	2.350E+00	-1.020E+00	2.560E+02	-1.120E+02	7.650E+02	4.350E+03
57.10	1.620E+01	5.030E+03	1.200E+01	3.420E+00	-1.130E+00	2.190E+00	-1.320E-01	2.200E+00	-9.900E-01	2.490E+02	-9.740E+01	7.670E+02	4.390E+03
57.15	1.640E+01	5.030E+03	1.200E+01	3.480E+00	-1.110E+00	2.300E+00	-1.880E-01	2.040E+00	-9.580E-01	2.380E+02	-8.200E+01	7.660E+02	4.400E+03
57.20	1.670E+01	5.040E+03	1.200E+01	3.480E+00	-1.070E+00	2.410E+00	-2.420E-01	1.890E+00	-9.270E-01	2.270E+02	-6.670E+01	7.650E+02	4.420E+03
57.25	1.650E+01	5.040E+03	1.200E+01	3.410E+00	-1.010E+00	2.530E+00	-2.980E-01	1.770E+00	-9.010E-01	2.150E+02	-4.990E+01	7.630E+02	4.420E+03
57.30	1.660E+01	5.040E+03	1.200E+01	3.290E+00	-9.290E-01	2.660E+00	-3.630E-01	1.700E+00	-8.820E-01	2.090E+02	-3.820E+01	7.620E+02	4.390E+03
57.35	1.620E+01	5.050E+03	1.200E+01	3.110E+00	-8.350E-01	2.810E+00	-4.370E-01	1.660E+00	-8.730E-01	2.040E+02	-2.630E+01	7.630E+02	4.350E+03
57.40	1.600E+01	5.050E+03	1.200E+01	2.910E+00	-7.350E-01	2.980E+00	-5.210E-01	1.660E+00	-8.770E-01	1.980E+02	-1.150E+01	7.640E+02	4.280E+03
57.45	1.600E+01	5.040E+03	1.200E+01	2.690E+00	-6.350E-01	3.170E+00	-6.130E-01	1.690E+00	-8.920E-01	1.950E+02	1.610E+00	7.650E+02	4.210E+03
57.50	1.630E+01	5.040E+03	1.200E+01	2.470E+00	-5.370E-01	3.350E+00	-7.030E-01	1.740E+00	-9.120E-01	1.870E+02	1.290E+01	7.650E+02	4.180E+03
57.55	1.620E+01	5.030E+03	1.200E+01	2.270E+00	-4.450E-01	3.500E+00	-7.860E-01	1.770E+00	-9.320E-01	1.770E+02	2.850E+01	7.620E+02	4.190E+03
57.60	1.600E+01	5.030E+03	1.210E+01	2.090E+00	-3.590E-01	3.610E+00	-8.570E-01	1.780E+00	-9.450E-01	1.690E+02	4.130E+01	7.580E+02	4.250E+03
57.65	1.610E+01	5.030E+03	1.210E+01	1.930E+00	-2.800E-01	3.670E+00	-9.110E-01	1.780E+00	-9.490E-01	1.570E+02	5.250E+01	7.550E+02	4.360E+03
57.70	1.630E+01	5.040E+03	1.210E+01	1.790E+00	-2.090E-01	3.710E+00	-9.510E-01	1.780E+00	-9.520E-01	1.470E+02	6.540E+01	7.520E+02	4.450E+03
57.75	1.680E+01	5.040E+03	1.210E+01	1.670E+00	-1.450E-01	3.740E+00	-9.840E-01	1.800E+00	-9.580E-01	1.370E+02	7.840E+01	7.480E+02	4.480E+03
57.80	1.680E+01	5.050E+03	1.210E+01	1.560E+00	-8.700E-02	3.770E+00	-1.020E+00	1.850E+00	-9.680E-01	1.300E+02	9.110E+01	7.450E+02	4.440E+03
57.85	1.650E+01	5.050E+03	1.210E+01	1.460E+00	-3.240E-02	3.800E+00	-1.050E+00	1.920E+00	-9.840E-01	1.290E+02	9.990E+01	7.410E+02	4.360E+03
57.90	1.640E+01	5.050E+03	1.210E+01	1.360E+00	1.830E-02	3.840E+00	-1.080E+00	2.010E+00	-1.000E+00	1.330E+02	1.080E+02	7.350E+02	4.250E+03
57.95	1.670E+01	5.050E+03	1.210E+01	1.280E+00	6.350E-02	3.870E+00	-1.120E+00	2.110E+00	-1.020E+00	1.410E+02	1.130E+02	7.280E+02	4.190E+03
58.00	1.650E+01	5.040E+03	1.210E+01	1.220E+00	9.990E-02	3.890E+00	-1.140E+00	2.190E+00	-1.040E+00	1.460E+02	1.170E+02	7.230E+02	4.190E+03
58.05	1.670E+01	5.040E+03	1.210E+01	1.210E+00	1.210E-01	3.870E+00	-1.160E+00	2.260E+00	-1.050E+00	1.460E+02	1.230E+02	7.140E+02	4.220E+03
58.10	1.700E+01	5.040E+03	1.210E+01	1.250E+00	1.240E-01	3.810E+00	-1.170E+00	2.330E+00	-1.060E+00	1.380E+02	1.320E+02	7.050E+02	4.250E+03
58.15	1.730E+01	5.040E+03	1.210E+01	1.320E+00	1.130E-01	3.720E+00	-1.170E+00	2.420E+00	-1.070E+00	1.320E+02	1.400E+02	6.970E+02	4.290E+03
58.20	1.750E+01	5.040E+03	1.220E+01	1.420E+00	9.660E-02	3.600E+00	-1.170E+00	2.510E+00	-1.090E+00	1.280E+02	1.450E+02	6.880E+02	4.350E+03
58.25	1.710E+01	5.040E+03	1.220E+01	1.510E+00	8.130E-02	3.450E+00	-1.150E+00	2.610E+00	-1.100E+00	1.220E+02	1.500E+02	6.780E+02	4.420E+03
58.30	1.700E+01	5.050E+03	1.220E+01	1.580E+00	6.840E-02	3.290E+00	-1.130E+00	2.720E+00	-1.120E+00	1.250E+02	1.510E+02	6.670E+02	4.420E+03
58.35	1.700E+01	5.050E+03	1.220E+01	1.610E+00	5.880E-02	3.120E+00	-1.110E+00	2.810E+00	-1.130E+00	1.380E+02	1.510E+02	6.610E+02	4.340E+03
58.40	1.740E+01	5.050E+03	1.220E+01	1.610E+00	5.780E-02	2.960E+00	-1.080E+00	2.880E+00	-1.130E+00	1.510E+02	1.490E+02	6.500E+02	4.260E+03
58.45	1.700E+01	5.050E+03	1.220E+01	1.580E+00	6.470E-02	2.800E+00	-1.060E+00	2.920E+00	-1.120E+00	1.620E+02	1.440E+02	6.400E+02	4.210E+03
[...]
622.90	1.770E+01	5.040E+03	1.240E+01	9.470E-01	3.250E-02	2.290E+00	-5.850E-01	2.870E+00	-1.380E+00	1.040E+02	8.890E+01	7.870E+02	4.080E+03
622.95	1.800E+01	5.040E+03	1.240E+01	9.830E-01	4.910E-02	2.310E+00	-6.310E-01	2.840E+00	-1.360E+00	1.180E+02	9.490E+01	7.840E+02	4.090E+03
623.00	1.710E+01	5.030E+03	1.240E+01	1.020E+00	6.690E-02	2.330E+00	-6.730E-01	2.790E+00	-1.340E+00	1.270E+02	1.040E+02	7.760E+02	4.120E+03
623.05	1.720E+01	5.030E+03	1.240E+01	1.060E+00	8.660E-02	2.350E+00	-7.120E-01	2.710E+00	-1.310E+00	1.350E+02	1.110E+02	7.660E+02	4.190E+03
623.10	1.730E+01	5.030E+03	1.240E+01	1.100E+00	1.050E-01	2.380E+00	-7.470E-01	2.630E+00	-1.270E+00	1.410E+02	1.160E+02	7.600E+02	4.280E+03
623.15	1.710E+01	5.040E+03	1.240E+01	1.150E+00	1.160E-01	2.400E+00	-7.830E-01	2.530E+00	-1.220E+00	1.430E+02	1.220E+02	7.510E+02	4.330E+03
623.20	1.740E+01	5.040E+03	1.240E+01	1.190E+00	1.190E-01	2.420E+00	-8.200E-01	2.440E+00	-1.190E+00	1.380E+02	1.320E+02	7.400E+02	4.310E+03
623.25	1.770E+01	5.050E+03	1.240E+01	1.220E+00	1.210E-01	2.440E+00	-8.580E-01	2.360E+00	-1.160E+00	1.390E+02	1.390E+02	7.330E+02	4.260E+03
623.30	1.770E+01	5.050E+03	1.250E+01	1.230E+00	1.290E-01	2.470E+00	-8.920E-01	2.300E+00	-1.120E+00	1.390E+02	1.440E+02	7.260E+02	4.240E+03
623.35	1.800E+01	5.050E+03	1.250E+01	1.230E+00	1.410E-01	2.530E+00	-9.300E-01	2.250E+00	-1.080E+00	1.370E+02	1.450E+02	7.160E+02	4.230E+03
623.40	1.800E+01	5.050E+03	1.250E+01	1.210E+00	1.520E-01	2.610E+00	-9.800E-01	2.190E+00	-1.040E+00	1.390E+02	1.450E+02	7.050E+02	4.190E+03
623.45	1.850E+01	5.050E+03	1.250E+01	1.200E+00	1.570E-01	2.730E+00	-1.050E+00	2.120E+00	-9.940E-01	1.440E+02	1.470E+02	6.990E+02	4.150E+03
623.50	1.880E+01	5.050E+03	1.250E+01	1.190E+00	1.580E-01	2.880E+00	-1.130E+00	2.050E+00	-9.450E-01	1.470E+02	1.450E+02	6.870E+02	4.150E+03
623.55	1.860E+01	5.050E+03	1.250E+01	1.190E+00	1.530E-01	3.040E+00	-1.210E+00	1.990E+00	-8.930E-01	1.510E+02	1.440E+02	6.770E+02	4.200E+03
623.60	1.820E+01	5.050E+03	1.250E+01	1.210E+00	1.390E-01	3.180E+00	-1.300E+00	1.930E+00	-8.400E-01	1.560E+02	1.430E+02	6.710E+02	4.270E+03
623.65	1.790E+01	5.060E+03	1.260E+01	1.250E+00	1.190E-01	3.280E+00	-1.370E+00	1.880E+00	-7.870E-01	1.590E+02	1.390E+02	6.600E+02	4.300E+03
623.70	1.730E+01	5.060E+03	1.260E+01	1.310E+00	9.090E-02	3.340E+00	-1.420E+00	1.830E+00	-7.320E-01	1.520E+02	1.400E+02	6.490E+02	4.290E+03
623.75	1.750E+01	5.060E+03	1.260E+01	1.380E+00	6.120E-02	3.360E+00	-1.470E+00	1.780E+00	-6.740E-01	1.500E+02	1.380E+02	6.370E+02	4.250E+03
623.80	1.760E+01	5.060E+03	1.260E+01	1.440E+00	3.570E-02	3.350E+00	-1.500E+00	1.730E+00	-6.150E-01	1.490E+02	1.350E+02	6.280E+02	4.230E+03
623.85	1.810E+01	5.070E+03	1.260E+01	1.480E+00	1.570E-02	3.300E+00	-1.510E+00	1.680E+00	-5.550E-01	1.530E+02	1.250E+02	6.180E+02	4.230E+03
623.90	1.800E+01	5.070E+03	1.260E+01	1.490E+00	-3.590E-03	3.250E+00	-1.520E+00	1.630E+00	-5.000E-01	1.600E+02	1.200E+02	6.110E+02	4.190E+03
623.95	1.720E+01	5.060E+03	1.260E+01	1.500E+00	-2.670E-02	3.190E+00	-1.530E+00	1.570E+00	-4.490E-01	1.660E+02	1.150E+02	6.040E+02	4.110E+03
624.00	1.710E+01	5.060E+03	1.260E+01	1.510E+00	-5.560E-02	3.110E+00	-1.530E+00	1.480E+00	-3.960E-01	1.730E+02	1.060E+02	5.930E+02	4.040E+03
624.05	1.690E+01	5.060E+03	1.270E+01	1.540E+00	-9.110E-02	3.010E+00	-1.520E+00	1.370E+00	-3.340E-01	1.780E+02	9.830E+01	5.860E+02	4.050E+03
624.10	1.690E+01	5.050E+03	1.270E+01	1.600E+00	-1.330E-01	2.900E+00	-1.480E+00	1.250E+00	-2.660E-01	1.770E+02	8.650E+01	5.770E+02	4.120E+03
624.15	1.740E+01	5.050E+03	1.270E+01	1.670E+00	-1.830E-01	2.790E+00	-1.450E+00	1.140E+00	-2.050E-01	1.720E+02	7.520E+01	5.680E+02	4.180E+03
624.20	1.790E+01	5.050E+03	1.270E+01	1.730E+00	-2.390E-01	2.690E+00	-1.420E+00	1.050E+00	-1.540E-01	1.700E+02	6.900E+01	5.620E+02	4.160E+03
624.25	1.790E+01	5.050E+03	1.270E+01	1.780E+00	-2.930E-01	2.610E+00	-1.390E+00	9.640E-01	-1.090E-01	1.690E+02	6.000E+01	5.540E+02	4.140E+03
624.30	1.780E+01	5.050E+03	1.270E+01	1.820E+00	-3.400E-01	2.560E+00	-1.370E+00	8.940E-01	-6.190E-02	1.720E+02	4.860E+01	5.480E+02	4.170E+03
624.35	1.830E+01	5.060E+03	1.270E+01	1.850E+00	-3.790E-01	2.540E+00	-1.350E+00	8.420E-01	-1.340E-02	1.730E+02	3.470E+01	5.430E+02	4.210E+03
624.40	1.870E+01	5.060E+03	1.270E+01	1.870E+00	-4.160E-01	2.530E+00	-1.330E+00	8.130E-01	3.000E-02	1.760E+02	2.030E+01	5.370E+02	4.200E+03
624.45	1.830E+01	5.060E+03	1.270E+01	1.910E+00	-4.600E-01	2.520E+00	-1.310E+00	8.150E-01	6.100E-02	1.840E+02	7.320E+00	5.340E+02	4.110E+03
624.50	1.830E+01	5.060E+03	1.270E+01	1.960E+00	-5.120E-01	2.480E+00	-1.290E+00	8.490E-01	7.870E-02	1.880E+02	-3.630E+00	5.310E+02	4.020E+03
624.55	1.840E+01	5.050E+03	1.270E+01	2.040E+00	-5.710E-01	2.430E+00	-1.270E+00	8.960E-01	8.940E-02	1.910E+02	-1.950E+01	5.280E+02	3.980E+03
624.60	1.850E+01	5.050E+03	1.280E+01	2.120E+00	-6.370E-01	2.380E+00	-1.250E+00	9.190E-01	1.030E-01	1.960E+02	-3.370E+01	5.260E+02	3.980E+03
624.65	1.810E+01	5.040E+03	1.280E+01	2.220E+00	-7.050E-01	2.320E+00	-1.220E+00	8.990E-01	1.250E-01	2.020E+02	-4.500E+01	5.240E+02	4.010E+03
624.70	1.840E+01	5.040E+03	1.280E+01	2.300E+00	-7.700E-01	2.270E+00	-1.200E+00	8.530E-01	1.550E-01	1.990E+02	-5.570E+01	5.220E+02	4.060E+03
624.75	1.860E+01	5.040E+03	1.280E+01	2.370E+00	-8.270E-01	2.230E+00	-1.170E+00	7.960E-01	1.890E-01	2.030E+02	-7.010E+01	5.210E+02	4.120E+03
624.80	1.840E+01	5.040E+03	1.280E+01	2.420E+00	-8.740E-01	2.220E+00	-1.150E+00	7.460E-01	2.210E-01	2.020E+02	-8.060E+01	5.200E+02	4.180E+03
624.85	1.840E+01	5.050E+03	1.280E+01	2.450E+00	-9.130E-01	2.220E+00	-1.130E+00	7.200E-01	2.450E-01	1.970E+02	-9.080E+01	5.220E+02	4.210E+03
624.90	1.830E+01	5.050E+03	1.280E+01	2.470E+00	-9.490E-01	2.220E+00	-1.120E+00	7.210E-01	2.550E-01	1.950E+02	-1.020E+02	5.240E+02	4.180E+03
624.95	1.830E+01	5.050E+03	1.280E+01	2.460E+00	-9.820E-01	2.210E+00	-1.090E+00	7.340E-01	2.560E-01	1.920E+02	-1.080E+02	5.270E+02	4.100E+03
625.00	1.800E+01	5.050E+03	1.280E+01	2.440E+00	-1.000E+00	2.150E+00	-1.050E+00	7.450E-01	2.590E-01	1.940E+02	-1.150E+02	5.310E+02	4.050E+03
625.05	1.790E+01	5.050E+03	1.290E+01	2.410E+00	-1.010E+00	2.060E+00	-9.940E-01	7.500E-01	2.720E-01	1.970E+02	-1.290E+02	5.370E+02	4.080E+03
625.10	1.820E+01	5.050E+03	1.290E+01	2.360E+00	-1.020E+00	1.980E+00	-9.280E-01	7.510E-01	2.880E-01	2.020E+02	-1.440E+02	5.420E+02	4.130E+03
625.15	1.730E+01	5.050E+03	1.290E+01	2.320E+00	-1.020E+00	1.910E+00	-8.690E-01	7.540E-01	2.980E-01	2.100E+02	-1.600E+02	5.470E+02	4.120E+03
625.20	1.700E+01	5.050E+03	1.290E+01	2.280E+00	-1.040E+00	1.850E+00	-8.220E-01	7.640E-01	2.950E-01	2.070E+02	-1.680E+02	5.560E+02	4.040E+03
625.25	1.720E+01	5.050E+03	1.290E+01	2.230E+00	-1.070E+00	1.770E+00	-7.750E-01	7.750E-01	2.820E-01	2.100E+02	-1.770E+02	5.630E+02	3.960E+03
625.30	1.700E+01	5.050E+03	1.290E+01	2.170E+00	-1.090E+00	1.670E+00	-7.180E-01	7.810E-01	2.660E-01	2.050E+02	-1.850E+02	5.700E+02	3.960E+03
625.35	1.710E+01	5.040E+03	1.290E+01	2.110E+00	-1.110E+00	1.530E+00	-6.490E-01	7.810E-01	2.480E-01	2.000E+02	-1.950E+02	5.780E+02	3.980E+03
625.40	1.740E+01	5.040E+03	1.290E+01	2.040E+00	-1.120E+00	1.370E+00	-5.700E-01	7.720E-01	2.310E-01	2.000E+02	-2.070E+02	5.850E+02	3.990E+03
625.45	1.730E+01	5.040E+03	1.290E+01	1.970E+00	-1.120E+00	1.190E+00	-4.800E-01	7.520E-01	2.170E-01	1.930E+02	-2.150E+02	5.940E+02	3.990E+03
625.50	1.740E+01	5.040E+03	1.290E+01	1.880E+00	-1.120E+00	1.000E+00	-3.850E-01	7.210E-01	2.050E-01	1.810E+02	-2.190E+02	6.030E+02	3.970E+03
625.55	1.740E+01	5.030E+03	1.290E+01	1.790E+00	-1.110E+00	8.340E-01	-2.920E-01	6.810E-01	1.920E-01	1.770E+02	-2.250E+02	6.120E+02	3.940E+03
625.60	1.750E+01	5.030E+03	1.290E+01	1.690E+00	-1.090E+00	6.840E-01	-2.050E-01	6.490E-01	1.740E-01	1.740E+02	-2.270E+02	6.240E+02	3.930E+03
625.65	1.700E+01	5.030E+03	1.290E+01	1.590E+00	-1.070E+00	5.700E-01	-1.260E-01	6.420E-01	1.500E-01	1.780E+02	-2.340E+02	6.310E+02	3.950E+03
625.70	1.710E+01	5.030E+03	1.290E+01	1.500E+00	-1.040E+00	4.930E-01	-5.650E-02	6.720E-01	1.180E-01	1.810E+02	-2.420E+02	6.410E+02	3.960E+03
625.75	1.720E+01	5.020E+03	1.290E+01	1.450E+00	-1.020E+00	4.390E-01	2.290E-03	7.400E-01	7.220E-02	1.790E+02	-2.450E+02	6.540E+02	3.890E+03
625.80	1.760E+01	5.020E+03	1.280E+01	1.460E+00	-1.020E+00	3.920E-01	4.950E-02	8.230E-01	1.350E-02	1.720E+02	-2.430E+02	6.640E+02	3.730E+03
625.85	1.730E+01	5.010E+03	1.280E+01	1.480E+00	-1.030E+00	3.540E-01	8.810E-02	9.070E-01	-4.970E-02	1.620E+02	-2.380E+02	6.750E+02	3.620E+03
625.90	1.750E+01	4.990E+03	1.280E+01	1.510E+00	-1.050E+00	3.270E-01	1.210E-01	9.890E-01	-1.120E-01	1.590E+02	-2.380E+02	6.860E+02	3.650E+03
625.95	1.780E+01	4.990E+03	1.280E+01	1.530E+00	-1.050E+00	3.150E-01	1.480E-01	1.070E+00	-1.740E-01	1.570E+02	-2.370E+02	6.970E+02	3.770E+03
626.00	1.800E+01	4.980E+03	1.280E+01	1.520E+00	-1.050E+00	3.170E-01	1.670E-01	1.150E+00	-2.350E-01	1.550E+02	-2.360E+02	7.040E+02	3.890E+03
626.05	1.790E+01	4.980E+03	1.280E+01	1.470E+00	-1.030E+00	3.330E-01	1.830E-01	1.230E+00	-2.930E-01	1.580E+02	-2.360E+02	7.150E+02	4.000E+03
626.10	1.790E+01	4.990E+03	1.280E+01	1.420E+00	-1.010E+00	3.530E-01	1.990E-01	1.320E+00	-3.470E-01	1.580E+02	-2.340E+02	7.280E+02	4.040E+03
626.15	1.770E+01	4.990E+03	1.280E+01	1.400E+00	-9.880E-01	3.580E-01	2.180E-01	1.410E+00	-4.050E-01	1.510E+02	-2.290E+02	7.390E+02	4.000E+03
626.20	1.790E+01	4.990E+03	1.280E+01	1.430E+00	-9.870E-01	3.380E-01	2.420E-01	1.510E+00	-4.670E-01	1.430E+02	-2.220E+02	7.500E+02	3.930E+03
626.25	1.830E+01	4.990E+03	1.280E+01	1.500E+00	-9.990E-01	2.990E-01	2.700E-01	1.590E+00	-5.280E-01	1.350E+02	-2.110E+02	7.600E+02	3.860E+03
626.30	1.820E+01	4.990E+03	1.280E+01	1.580E+00	-1.010E+00	2.730E-01	2.960E-01	1.630E+00	-5.780E-01	1.320E+02	-2.030E+02	7.690E+02	3.820E+03
626.35	1.810E+01	4.990E+03	1.280E+01	1.650E+00	-1.010E+00	2.910E-01	3.110E-01	1.630E+00	-6.120E-01	1.320E+02	-1.960E+02	7.780E+02	3.820E+03
626.40	1.830E+01	4.980E+03	1.280E+01	1.670E+00	-9.950E-01	3.550E-01	3.120E-01	1.590E+00	-6.340E-01	1.320E+02	-1.880E+02	7.870E+02	3.810E+03
626.45	1.820E+01	4.980E+03	1.280E+01	1.640E+00	-9.610E-01	4.480E-01	3.040E-01	1.540E+00	-6.500E-01	1.430E+02	-1.820E+02	7.970E+02	3.800E+03
626.50	1.860E+01	4.970E+03	1.280E+01	1.580E+00	-9.150E-01	5.460E-01	2.920E-01	1.490E+00	-6.670E-01	1.500E+02	-1.760E+02	8.070E+02	3.860E+03
626.55	1.830E+01	4.970E+03	1.280E+01	1.500E+00	-8.610E-01	6.340E-01	2.790E-01	1.450E+00	-6.900E-01	1.580E+02	-1.720E+02	8.130E+02	3.950E+03
626.60	1.790E+01	4.980E+03	1.270E+01	1.400E+00	-8.070E-01	7.140E-01	2.620E-01	1.410E+00	-7.180E-01	1.560E+02	-1.630E+02	8.200E+02	4.030E+03
626.65	1.760E+01	4.980E+03	1.270E+01	1.310E+00	-7.570E-01	7.880E-01	2.370E-01	1.380E+00	-7.520E-01	1.490E+02	-1.520E+02	8.240E+02	4.030E+03
626.70	1.730E+01	4.990E+03	1.270E+01	1.230E+00	-7.080E-01	8.660E-01	2.060E-01	1.350E+00	-7.830E-01	1.370E+02	-1.360E+02	8.290E+02	3.980E+03
626.75	1.760E+01	4.990E+03	1.270E+01	1.140E+00	-6.500E-01	9.520E-01	1.750E-01	1.320E+00	-8.030E-01	1.240E+02	-1.230E+02	8.340E+02	3.960E+03
626.80	1.780E+01	4.990E+03	1.270E+01	1.030E+00	-5.760E-01	1.050E+00	1.410E-01	1.290E+00	-8.140E-01	1.110E+02	-1.100E+02	8.380E+02	3.950E+03
626.85	1.810E+01	4.990E+03	1.270E+01	8.940E-01	-4.930E-01	1.140E+00	9.870E-02	1.260E+00	-8.230E-01	1.040E+02	-9.700E+01	8.420E+02	3.910E+03
626.90	1.840E+01	4.990E+03	1.270E+01	7.410E-01	-4.050E-01	1.210E+00	5.300E-02	1.230E+00	-8.350E-01	1.050E+02	-8.620E+01	8.460E+02	3.870E+03
626.95	1.810E+01	4.980E+03	1.270E+01	5.780E-01	-3.150E-01	1.250E+00	1.130E-02	1.230E+00	-8.530E-01	1.040E+02	-7.330E+01	8.490E+02	3.830E+03
627.00	1.820E+01	4.980E+03	1.270E+01	4.120E-01	-2.220E-01	1.240E+00	-2.060E-02	1.230E+00	-8.710E-01	1.050E+02	-6.180E+01	8.510E+02	3.840E+03
627.05	1.790E+01	4.980E+03	1.270E+01	2.610E-01	-1.310E-01	1.200E+00	-3.900E-02	1.240E+00	-8.870E-01	1.070E+02	-5.100E+01	8.520E+02	3.870E+03
627.10	1.720E+01	4.980E+03	1.270E+01	1.470E-01	-5.170E-02	1.130E+00	-4.780E-02	1.250E+00	-9.050E-01	1.060E+02	-3.990E+01	8.520E+02	3.860E+03
627.15	1.700E+01	4.970E+03	1.270E+01	7.980E-02	8.820E-03	1.050E+00	-5.080E-02	1.260E+00	-9.220E-01	1.030E+02	-2.720E+01	8.510E+02	3.830E+03
627.20	1.720E+01	4.970E+03	1.270E+01	5.940E-02	5.040E-02	9.720E-01	-5.260E-02	1.270E+00	-9.370E-01	9.750E+01	-1.280E+01	8.480E+02	3.820E+03
627.25	1.690E+01	4.970E+03	1.270E+01	8.060E-02	7.530E-02	9.140E-01	-5.860E-02	1.260E+00	-9.470E-01	9.080E+01	1.590E+00	8.460E+02	3.840E+03
627.30	1.700E+01	4.970E+03	1.270E+01	1.320E-01	8.910E-02	8.800E-01	-6.700E-02	1.250E+00	-9.500E-01	8.350E+01	1.410E+01	8.440E+02	3.900E+03
627.35	1.660E+01	4.970E+03	1.260E+01	1.920E-01	9.700E-02	8.690E-01	-7.950E-02	1.240E+00	-9.530E-01	8.120E+01	2.830E+01	8.420E+02	3.920E+03
627.40	1.690E+01	4.970E+03	1.260E+01	2.460E-01	1.050E-01	8.810E-01	-9.850E-02	1.240E+00	-9.580E-01	8.820E+01	3.800E+01	8.380E+02	3.900E+03
627.45	1.750E+01	4.970E+03	1.260E+01	2.930E-01	1.160E-01	9.200E-01	-1.250E-01	1.260E+00	-9.680E-01	1.020E+02	4.300E+01	8.350E+02	3.860E+03
627.50	1.760E+01	4.960E+03	1.260E+01	3.380E-01	1.270E-01	9.810E-01	-1.550E-01	1.310E+00	-9.820E-01	1.170E+02	4.820E+01	8.290E+02	3.850E+03
627.55	1.780E+01	4.960E+03	1.260E+01	3.800E-01	1.340E-01	1.060E+00	-1.910E-01	1.360E+00	-9.980E-01	1.310E+02	5.300E+01	8.200E+02	3.860E+03
627.60	1.770E+01	4.960E+03	1.260E+01	4.220E-01	1.360E-01	1.140E+00	-2.370E-01	1.400E+00	-1.010E+00	1.430E+02	5.580E+01	8.130E+02	3.880E+03
627.65	1.780E+01	4.960E+03	1.260E+01	4.730E-01	1.300E-01	1.220E+00	-2.870E-01	1.430E+00	-1.020E+00	1.480E+02	6.300E+01	8.050E+02	3.920E+03
627.70	1.790E+01	4.960E+03	1.260E+01	5.410E-01	1.200E-01	1.300E+00	-3.380E-01	1.430E+00	-1.010E+00	1.420E+02	7.310E+01	7.940E+02	3.960E+03
627.75	1.800E+01	4.960E+03	1.260E+01	6.150E-01	1.080E-01	1.370E+00	-3.880E-01	1.440E+00	-1.010E+00	1.350E+02	8.150E+01	7.840E+02	3.980E+03
627.80	1.800E+01	4.970E+03	1.260E+01	6.770E-01	1.010E-01	1.430E+00	-4.380E-01	1.460E+00	-9.970E-01	1.270E+02	9.160E+01	7.740E+02	3.970E+03
627.85	1.830E+01	4.970E+03	1.260E+01	7.190E-01	1.030E-01	1.470E+00	-4.870E-01	1.480E+00	-9.880E-01	1.210E+02	1.030E+02	7.630E+02	3.980E+03
627.90	1.870E+01	4.970E+03	1.260E+01	7.420E-01	1.180E-01	1.500E+00	-5.310E-01	1.490E+00	-9.680E-01	1.210E+02	1.070E+02	7.530E+02	4.050E+03
627.95	1.870E+01	4.980E+03	1.260E+01	7.520E-01	1.400E-01	1.520E+00	-5.720E-01	1.480E+00	-9.410E-01	1.260E+02	1.130E+02	7.470E+02	4.110E+03
628.00	1.820E+01	4.980E+03	1.260E+01	7.560E-01	1.640E-01	1.510E+00	-6.120E-01	1.470E+00	-9.140E-01	1.280E+02	1.210E+02	7.360E+02	4.110E+03
628.05	1.790E+01	4.990E+03	1.260E+01	7.630E-01	1.890E-01	1.490E+00	-6.470E-01	1.460E+00	-8.850E-01	1.300E+02	1.260E+02	7.240E+02	4.070E+03
628.10	1.770E+01	4.990E+03	1.260E+01	7.830E-01	2.060E-01	1.460E+00	-6.780E-01	1.440E+00	-8.540E-01	1.330E+02	1.300E+02	7.170E+02	3.990E+03
628.15	1.800E+01	4.990E+03	1.260E+01	8.280E-01	2.120E-01	1.410E+00	-7.030E-01	1.400E+00	-8.170E-01	1.300E+02	1.360E+02	7.050E+02	3.930E+03
628.20	1.890E+01	4.980E+03	1.260E+01	8.960E-01	2.050E-01	1.350E+00	-7.220E-01	1.320E+00	-7.700E-01	1.250E+02	1.390E+02	6.930E+02	3.910E+03
628.25	1.930E+01	4.980E+03	1.260E+01	9.790E-01	1.840E-01	1.300E+00	-7.410E-01	1.220E+00	-7.140E-01	1.230E+02	1.440E+02	6.860E+02	3.930E+03
628.30	1.850E+01	4.980E+03	1.260E+01	1.070E+00	1.540E-01	1.270E+00	-7.610E-01	1.090E+00	-6.520E-01	1.250E+02	1.460E+02	6.770E+02	3.980E+03
628.35	1.860E+01	4.980E+03	1.260E+01	1.160E+00	1.190E-01	1.250E+00	-7.800E-01	9.540E-01	-5.830E-01	1.250E+02	1.450E+02	6.660E+02	4.040E+03
628.40	1.840E+01	4.990E+03	1.260E+01	1.230E+00	8.330E-02	1.250E+00	-7.980E-01	8.140E-01	-5.080E-01	1.340E+02	1.420E+02	6.570E+02	4.080E+03
628.45	1.860E+01	4.990E+03	1.260E+01	1.280E+00	5.110E-02	1.260E+00	-8.120E-01	6.790E-01	-4.310E-01	1.420E+02	1.360E+02	6.480E+02	4.110E+03
628.50	1.870E+01	4.990E+03	1.260E+01	1.310E+00	2.310E-02	1.270E+00	-8.200E-01	5.530E-01	-3.530E-01	1.470E+02	1.290E+02	6.350E+02	4.120E+03
628.55	1.860E+01	5.000E+03	1.260E+01	1.320E+00	-2.090E-03	1.270E+00	-8.250E-01	4.470E-01	-2.780E-01	1.540E+02	1.200E+02	6.240E+02	4.110E+03
628.60	1.860E+01	5.000E+03	1.260E+01	1.300E+00	-2.550E-02	1.280E+00	-8.320E-01	3.640E-01	-2.100E-01	1.660E+02	1.080E+02	6.150E+02	4.060E+03
628.65	1.900E+01	5.000E+03	1.260E+01	1.270E+00	-4.590E-02	1.280E+00	-8.420E-01	3.020E-01	-1.510E-01	1.670E+02	9.820E+01	6.050E+02	3.980E+03
628.70	1.830E+01	5.000E+03	1.260E+01	1.220E+00	-6.470E-02	1.290E+00	-8.600E-01	2.500E-01	-9.650E-02	1.650E+02	9.040E+01	5.930E+02	3.870E+03
628.75	1.820E+01	4.990E+03	1.260E+01	1.170E+00	-8.220E-02	1.310E+00	-8.860E-01	2.020E-01	-4.350E-02	1.640E+02	8.460E+01	5.840E+02	3.780E+03
628.80	1.870E+01	4.980E+03	1.260E+01	1.120E+00	-9.730E-02	1.340E+00	-9.140E-01	1.480E-01	1.540E-02	1.600E+02	7.590E+01	5.730E+02	3.790E+03
628.85	1.860E+01	4.980E+03	1.260E+01	1.080E+00	-1.080E-01	1.370E+00	-9.410E-01	7.340E-02	8.550E-02	1.550E+02	6.940E+01	5.630E+02	3.890E+03
628.90	1.940E+01	4.980E+03	1.260E+01	1.040E+00	-1.120E-01	1.410E+00	-9.710E-01	-2.100E-02	1.650E-01	1.500E+02	6.390E+01	5.540E+02	4.050E+03
628.95	1.940E+01	4.980E+03	1.260E+01	1.000E+00	-1.090E-01	1.450E+00	-1.000E+00	-1.060E-01	2.390E-01	1.480E+02	5.810E+01	5.460E+02	4.190E+03
629.00	1.920E+01	4.990E+03	1.260E+01	9.780E-01	-1.060E-01	1.510E+00	-1.040E+00	-1.450E-01	2.950E-01	1.500E+02	5.010E+01	5.380E+02	4.250E+03
629.05	1.920E+01	5.000E+03	1.260E+01	9.670E-01	-1.090E-01	1.560E+00	-1.070E+00	-1.230E-01	3.220E-01	1.530E+02	4.360E+01	5.310E+02	4.190E+03
629.10	1.930E+01	5.000E+03	1.260E+01	9.700E-01	-1.180E-01	1.600E+00	-1.110E+00	-4.790E-02	3.240E-01	1.500E+02	3.860E+01	5.250E+02	4.060E+03
629.15	1.910E+01	5.000E+03	1.260E+01	9.890E-01	-1.330E-01	1.650E+00	-1.140E+00	4.840E-02	3.120E-01	1.490E+02	3.030E+01	5.200E+02	3.930E+03
629.20	1.910E+01	5.000E+03	1.260E+01	1.020E+00	-1.550E-01	1.700E+00	-1.170E+00	1.310E-01	2.970E-01	1.480E+02	2.250E+01	5.170E+02	3.840E+03
629.25	1.900E+01	4.990E+03	1.260E+01	1.060E+00	-1.830E-01	1.740E+00	-1.180E+00	1.860E-01	2.860E-01	1.480E+02	1.600E+01	5.140E+02	3.830E+03
629.30	1.890E+01	4.990E+03	1.260E+01	1.090E+00	-2.130E-01	1.760E+00	-1.180E+00	2.250E-01	2.790E-01	1.450E+02	5.210E+00	5.110E+02	3.910E+03
629.35	1.850E+01	4.990E+03	1.260E+01	1.120E+00	-2.470E-01	1.740E+00	-1.160E+00	2.590E-01	2.730E-01	1.470E+02	-8.750E+00	5.080E+02	4.020E+03
629.40	1.870E+01	4.990E+03	1.260E+01	1.140E+00	-2.850E-01	1.700E+00	-1.130E+00	2.960E-01	2.650E-01	1.520E+02	-2.270E+01	5.070E+02	4.110E+03
629.45	1.870E+01	4.990E+03	1.260E+01	1.130E+00	-3.250E-01	1.640E+00	-1.080E+00	3.390E-01	2.580E-01	1.510E+02	-3.430E+01	5.070E+02	4.180E+03
629.50	1.870E+01	5.000E+03	1.260E+01	1.120E+00	-3.650E-01	1.560E+00	-1.020E+00	3.860E-01	2.560E-01	1.560E+02	-5.370E+01	5.090E+02	4.210E+03
629.55	1.860E+01	5.010E+03	1.260E+01	1.090E+00	-4.060E-01	1.460E+00	-9.560E-01	4.300E-01	2.580E-01	1.520E+02	-6.660E+01	5.110E+02	4.210E+03
629.60	1.880E+01	5.010E+03	1.260E+01	1.060E+00	-4.480E-01	1.380E+00	-8.920E-01	4.730E-01	2.620E-01	1.490E+02	-8.110E+01	5.120E+02	4.120E+03
629.65	1.880E+01	5.010E+03	1.260E+01	1.040E+00	-4.910E-01	1.290E+00	-8.310E-01	5.210E-01	2.640E-01	1.480E+02	-9.580E+01	5.120E+02	3.990E+03
629.70	1.890E+01	5.010E+03	1.260E+01	1.020E+00	-5.330E-01	1.210E+00	-7.700E-01	5.680E-01	2.690E-01	1.440E+02	-1.100E+02	5.140E+02	3.880E+03
629.75	1.910E+01	5.000E+03	1.260E+01	1.010E+00	-5.730E-01	1.100E+00	-7.060E-01	6.130E-01	2.720E-01	1.390E+02	-1.220E+02	5.160E+02	3.810E+03
629.80	1.910E+01	4.990E+03	1.260E+01	9.860E-01	-6.120E-01	9.720E-01	-6.380E-01	6.560E-01	2.690E-01	1.350E+02	-1.320E+02	5.190E+02	3.780E+03
629.85	1.920E+01	4.990E+03	1.260E+01	9.640E-01	-6.460E-01	8.110E-01	-5.630E-01	7.020E-01	2.600E-01	1.350E+02	-1.410E+02	5.240E+02	3.830E+03
629.90	1.930E+01	4.980E+03	1.260E+01	9.510E-01	-6.720E-01	6.310E-01	-4.790E-01	7.550E-01	2.440E-01	1.350E+02	-1.520E+02	5.290E+02	3.970E+03
629.95	1.940E+01	4.980E+03	1.260E+01	9.560E-01	-6.960E-01	4.500E-01	-3.940E-01	8.230E-01	2.150E-01	1.320E+02	-1.610E+02	5.330E+02	4.080E+03
630.00	1.930E+01	4.990E+03	1.250E+01	9.760E-01	-7.190E-01	2.870E-01	-3.180E-01	9.160E-01	1.660E-01	1.360E+02	-1.710E+02	5.370E+02	4.120E+03
