
"These predictions were generated by FAST (v6.10a-jmj, 21-Feb-2007) on 01-Apr-2007 at 16:58:14."
"The aerodynamic calculations were made by AeroDyn (12.60i-pjm, 16-Nov-2006)."

 NREL 5.0 MW Baseline Wind Turbine for Use in Offshore Analysis.

    Time	WindVxi	GenPwr	RotSpeed	OoPDefl1	IPDefl1	OoPDefl2	IPDefl2	OoPDefl3	IPDefl3	RootFxc1	RootFyc1	RootFzc1	RotTorq
   (sec)	(m/sec)	(kW)	(rpm)	(m)	(m)	(m)	(m)	(m)	(m)	(kN)	(kN)	(kN)	(kN·m)
30.00	2.254E+01	5.032E+03	1.255E+01	1.860E+00	-6.912E-01	2.003E+00	-1.149E+00	5.703E-01	3.128E-01	1.679E+02	-6.852E+01	4.953E+02	4.101E+03
30.05	2.304E+01	5.033E+03	1.257E+01	1.765E+00	-6.901E-01	1.847E+00	-1.064E+00	6.082E-01	3.083E-01	1.730E+02	-8.360E+01	4.984E+02	4.194E+03
30.10	2.266E+01	5.037E+03	1.258E+01	1.670E+00	-6.856E-01	1.673E+00	-9.642E-01	6.256E-01	3.095E-01	1.774E+02	-9.941E+01	5.027E+02	4.279E+03
30.15	2.246E+01	5.043E+03	1.258E+01	1.588E+00	-6.858E-01	1.507E+00	-8.624E-01	6.345E-01	3.078E-01	1.848E+02	-1.157E+02	5.064E+02	4.290E+03
30.20	2.217E+01	5.048E+03	1.259E+01	1.536E+00	-7.012E-01	1.364E+00	-7.710E-01	6.510E-01	2.950E-01	1.924E+02	-1.306E+02	5.111E+02	4.214E+03
30.25	2.239E+01	5.049E+03	1.260E+01	1.527E+00	-7.331E-01	1.243E+00	-6.887E-01	6.833E-01	2.720E-01	1.947E+02	-1.434E+02	5.170E+02	4.127E+03
30.30	2.180E+01	5.047E+03	1.261E+01	1.561E+00	-7.788E-01	1.129E+00	-6.101E-01	7.345E-01	2.400E-01	1.905E+02	-1.544E+02	5.219E+02	4.061E+03
30.35	2.140E+01	5.043E+03	1.261E+01	1.616E+00	-8.323E-01	1.009E+00	-5.341E-01	7.987E-01	2.017E-01	1.851E+02	-1.639E+02	5.264E+02	4.002E+03
30.40	2.143E+01	5.037E+03	1.261E+01	1.672E+00	-8.860E-01	8.750E-01	-4.592E-01	8.569E-01	1.663E-01	1.798E+02	-1.710E+02	5.328E+02	3.952E+03
30.45	2.148E+01	5.031E+03	1.261E+01	1.720E+00	-9.345E-01	7.341E-01	-3.849E-01	8.944E-01	1.415E-01	1.778E+02	-1.793E+02	5.390E+02	3.940E+03
30.50	2.146E+01	5.025E+03	1.261E+01	1.757E+00	-9.772E-01	5.959E-01	-3.130E-01	9.001E-01	1.325E-01	1.831E+02	-1.932E+02	5.449E+02	3.975E+03
30.55	2.132E+01	5.022E+03	1.261E+01	1.788E+00	-1.016E+00	4.673E-01	-2.472E-01	8.725E-01	1.385E-01	1.874E+02	-2.050E+02	5.556E+02	4.035E+03
30.60	2.166E+01	5.022E+03	1.261E+01	1.821E+00	-1.055E+00	3.471E-01	-1.874E-01	8.119E-01	1.529E-01	1.877E+02	-2.118E+02	5.627E+02	4.074E+03
30.65	2.189E+01	5.022E+03	1.260E+01	1.859E+00	-1.094E+00	2.281E-01	-1.322E-01	7.319E-01	1.709E-01	1.842E+02	-2.161E+02	5.681E+02	4.073E+03
30.70	2.186E+01	5.021E+03	1.260E+01	1.883E+00	-1.125E+00	1.014E-01	-7.761E-02	6.501E-01	1.899E-01	1.845E+02	-2.222E+02	5.769E+02	4.038E+03
30.75	2.142E+01	5.019E+03	1.259E+01	1.880E+00	-1.141E+00	-3.755E-02	-1.731E-02	5.687E-01	2.092E-01	1.834E+02	-2.274E+02	5.849E+02	3.978E+03
30.80	2.170E+01	5.015E+03	1.259E+01	1.849E+00	-1.141E+00	-1.854E-01	5.244E-02	4.833E-01	2.317E-01	1.818E+02	-2.316E+02	5.923E+02	3.932E+03
30.85	2.187E+01	5.010E+03	1.260E+01	1.800E+00	-1.130E+00	-3.195E-01	1.273E-01	4.011E-01	2.574E-01	1.907E+02	-2.425E+02	6.032E+02	3.942E+03
30.90	2.181E+01	5.007E+03	1.258E+01	1.746E+00	-1.115E+00	-4.173E-01	1.971E-01	3.278E-01	2.782E-01	1.948E+02	-2.501E+02	6.166E+02	3.960E+03
30.95	2.141E+01	5.003E+03	1.255E+01	1.702E+00	-1.110E+00	-4.795E-01	2.524E-01	2.640E-01	2.813E-01	1.897E+02	-2.524E+02	6.237E+02	3.895E+03
31.00	2.172E+01	4.996E+03	1.254E+01	1.674E+00	-1.118E+00	-5.190E-01	2.948E-01	2.166E-01	2.659E-01	1.913E+02	-2.536E+02	6.323E+02	3.796E+03
31.05	2.220E+01	4.987E+03	1.254E+01	1.664E+00	-1.130E+00	-5.443E-01	3.362E-01	1.937E-01	2.403E-01	1.890E+02	-2.524E+02	6.461E+02	3.780E+03
31.10	2.225E+01	4.981E+03	1.254E+01	1.678E+00	-1.142E+00	-5.547E-01	3.816E-01	1.975E-01	2.073E-01	1.860E+02	-2.564E+02	6.541E+02	3.864E+03
31.15	2.224E+01	4.978E+03	1.253E+01	1.712E+00	-1.155E+00	-5.477E-01	4.269E-01	2.257E-01	1.673E-01	1.844E+02	-2.578E+02	6.646E+02	3.972E+03
31.20	2.261E+01	4.979E+03	1.252E+01	1.753E+00	-1.169E+00	-5.242E-01	4.673E-01	2.789E-01	1.170E-01	1.882E+02	-2.563E+02	6.791E+02	4.045E+03
31.25	2.254E+01	4.982E+03	1.252E+01	1.809E+00	-1.186E+00	-4.839E-01	4.996E-01	3.555E-01	5.630E-02	2.000E+02	-2.596E+02	6.889E+02	4.087E+03
31.30	2.255E+01	4.986E+03	1.252E+01	1.886E+00	-1.207E+00	-4.214E-01	5.206E-01	4.530E-01	-1.071E-02	2.091E+02	-2.597E+02	7.009E+02	4.120E+03
31.35	2.254E+01	4.991E+03	1.252E+01	1.983E+00	-1.233E+00	-3.389E-01	5.271E-01	5.561E-01	-7.929E-02	2.145E+02	-2.581E+02	7.115E+02	4.126E+03
31.40	2.238E+01	4.994E+03	1.251E+01	2.086E+00	-1.261E+00	-2.462E-01	5.183E-01	6.442E-01	-1.446E-01	2.154E+02	-2.568E+02	7.177E+02	4.064E+03
31.45	2.193E+01	4.994E+03	1.251E+01	2.168E+00	-1.283E+00	-1.526E-01	5.000E-01	7.059E-01	-2.005E-01	2.158E+02	-2.488E+02	7.279E+02	3.969E+03
31.50	2.153E+01	4.991E+03	1.251E+01	2.215E+00	-1.287E+00	-6.997E-02	4.833E-01	7.465E-01	-2.449E-01	2.161E+02	-2.419E+02	7.387E+02	3.913E+03
31.55	2.137E+01	4.987E+03	1.251E+01	2.217E+00	-1.268E+00	-1.365E-02	4.750E-01	7.846E-01	-2.846E-01	2.122E+02	-2.355E+02	7.471E+02	3.921E+03
31.60	2.115E+01	4.985E+03	1.251E+01	2.175E+00	-1.231E+00	7.989E-03	4.746E-01	8.345E-01	-3.285E-01	2.032E+02	-2.248E+02	7.544E+02	3.960E+03
31.65	2.173E+01	4.984E+03	1.251E+01	2.089E+00	-1.178E+00	4.393E-03	4.772E-01	8.947E-01	-3.777E-01	1.984E+02	-2.141E+02	7.624E+02	4.020E+03
31.70	2.199E+01	4.986E+03	1.251E+01	1.966E+00	-1.111E+00	-1.150E-03	4.771E-01	9.568E-01	-4.274E-01	1.942E+02	-2.042E+02	7.708E+02	4.098E+03
31.75	2.204E+01	4.991E+03	1.251E+01	1.824E+00	-1.034E+00	9.856E-03	4.699E-01	1.012E+00	-4.742E-01	1.838E+02	-1.939E+02	7.778E+02	4.158E+03
31.80	2.197E+01	4.996E+03	1.252E+01	1.674E+00	-9.529E-01	5.086E-02	4.533E-01	1.052E+00	-5.169E-01	1.809E+02	-1.824E+02	7.867E+02	4.164E+03
31.85	2.177E+01	5.001E+03	1.252E+01	1.523E+00	-8.687E-01	1.258E-01	4.302E-01	1.073E+00	-5.536E-01	1.847E+02	-1.729E+02	7.957E+02	4.138E+03
31.90	2.174E+01	5.003E+03	1.252E+01	1.374E+00	-7.801E-01	2.337E-01	4.010E-01	1.081E+00	-5.862E-01	1.833E+02	-1.645E+02	8.018E+02	4.094E+03
31.95	2.166E+01	5.004E+03	1.252E+01	1.225E+00	-6.911E-01	3.510E-01	3.679E-01	1.100E+00	-6.280E-01	1.740E+02	-1.514E+02	8.064E+02	4.012E+03
32.00	2.136E+01	5.001E+03	1.251E+01	1.069E+00	-6.043E-01	4.333E-01	3.399E-01	1.159E+00	-6.912E-01	1.608E+02	-1.364E+02	8.095E+02	3.904E+03
32.05	2.118E+01	4.994E+03	1.250E+01	9.028E-01	-5.177E-01	4.581E-01	3.253E-01	1.256E+00	-7.723E-01	1.440E+02	-1.191E+02	8.134E+02	3.826E+03
32.10	2.125E+01	4.987E+03	1.250E+01	7.196E-01	-4.252E-01	4.314E-01	3.258E-01	1.370E+00	-8.584E-01	1.363E+02	-1.040E+02	8.186E+02	3.830E+03
32.15	2.091E+01	4.982E+03	1.251E+01	5.300E-01	-3.239E-01	3.790E-01	3.389E-01	1.489E+00	-9.378E-01	1.352E+02	-9.335E+01	8.235E+02	3.948E+03
32.20	2.055E+01	4.983E+03	1.251E+01	3.696E-01	-2.250E-01	3.276E-01	3.568E-01	1.611E+00	-1.008E+00	1.329E+02	-8.467E+01	8.268E+02	4.115E+03
32.25	2.060E+01	4.989E+03	1.250E+01	2.606E-01	-1.434E-01	2.883E-01	3.658E-01	1.736E+00	-1.077E+00	1.219E+02	-7.075E+01	8.279E+02	4.194E+03
32.30	2.071E+01	4.995E+03	1.248E+01	1.854E-01	-7.944E-02	2.597E-01	3.598E-01	1.854E+00	-1.148E+00	1.067E+02	-5.005E+01	8.275E+02	4.136E+03
32.35	2.045E+01	4.996E+03	1.248E+01	1.104E-01	-2.005E-02	2.439E-01	3.399E-01	1.944E+00	-1.211E+00	9.801E+01	-3.070E+01	8.260E+02	4.023E+03
32.40	2.074E+01	4.995E+03	1.250E+01	1.874E-02	4.708E-02	2.428E-01	3.121E-01	1.998E+00	-1.254E+00	9.009E+01	-1.588E+01	8.253E+02	3.967E+03
32.45	2.072E+01	4.993E+03	1.250E+01	-7.466E-02	1.196E-01	2.504E-01	2.856E-01	2.020E+00	-1.274E+00	8.579E+01	-5.128E+00	8.255E+02	3.991E+03
32.50	2.022E+01	4.992E+03	1.249E+01	-1.553E-01	1.898E-01	2.622E-01	2.616E-01	2.017E+00	-1.276E+00	8.653E+01	6.464E+00	8.254E+02	4.021E+03
32.55	2.041E+01	4.991E+03	1.247E+01	-2.227E-01	2.532E-01	2.716E-01	2.353E-01	1.998E+00	-1.270E+00	8.854E+01	1.552E+01	8.248E+02	3.979E+03
32.60	2.047E+01	4.988E+03	1.245E+01	-2.721E-01	3.034E-01	2.800E-01	2.029E-01	1.963E+00	-1.262E+00	9.313E+01	2.541E+01	8.222E+02	3.873E+03
32.65	1.986E+01	4.981E+03	1.245E+01	-2.887E-01	3.367E-01	2.938E-01	1.650E-01	1.920E+00	-1.254E+00	9.688E+01	3.885E+01	8.163E+02	3.812E+03
32.70	1.938E+01	4.974E+03	1.245E+01	-2.715E-01	3.569E-01	3.185E-01	1.231E-01	1.878E+00	-1.242E+00	9.621E+01	4.776E+01	8.099E+02	3.864E+03
32.75	1.952E+01	4.971E+03	1.244E+01	-2.403E-01	3.650E-01	3.535E-01	7.469E-02	1.843E+00	-1.230E+00	9.827E+01	5.273E+01	8.051E+02	3.941E+03
32.80	1.976E+01	4.970E+03	1.241E+01	-2.119E-01	3.622E-01	3.903E-01	2.358E-02	1.810E+00	-1.221E+00	9.877E+01	6.355E+01	7.983E+02	3.959E+03
32.85	1.981E+01	4.968E+03	1.240E+01	-1.945E-01	3.579E-01	4.190E-01	-2.078E-02	1.786E+00	-1.213E+00	9.941E+01	7.629E+01	7.896E+02	3.949E+03
32.90	2.010E+01	4.968E+03	1.242E+01	-1.916E-01	3.651E-01	4.380E-01	-5.079E-02	1.774E+00	-1.196E+00	1.001E+02	8.632E+01	7.840E+02	4.006E+03
32.95	2.033E+01	4.971E+03	1.243E+01	-2.062E-01	3.899E-01	4.539E-01	-6.708E-02	1.779E+00	-1.172E+00	9.592E+01	9.203E+01	7.747E+02	4.138E+03
33.00	2.009E+01	4.978E+03	1.242E+01	-2.462E-01	4.255E-01	4.738E-01	-8.482E-02	1.797E+00	-1.152E+00	8.868E+01	9.699E+01	7.608E+02	4.212E+03
33.05	1.991E+01	4.984E+03	1.240E+01	-3.122E-01	4.623E-01	5.015E-01	-1.176E-01	1.827E+00	-1.144E+00	8.281E+01	1.046E+02	7.504E+02	4.139E+03
33.10	2.030E+01	4.986E+03	1.239E+01	-3.855E-01	4.983E-01	5.441E-01	-1.638E-01	1.861E+00	-1.145E+00	7.675E+01	1.143E+02	7.410E+02	3.997E+03
33.15	2.046E+01	4.982E+03	1.239E+01	-4.415E-01	5.349E-01	6.018E-01	-2.149E-01	1.891E+00	-1.147E+00	6.523E+01	1.243E+02	7.291E+02	3.888E+03
33.20	2.088E+01	4.976E+03	1.238E+01	-4.706E-01	5.690E-01	6.679E-01	-2.684E-01	1.910E+00	-1.143E+00	6.081E+01	1.300E+02	7.192E+02	3.816E+03
33.25	2.173E+01	4.968E+03	1.236E+01	-4.743E-01	5.988E-01	7.376E-01	-3.257E-01	1.907E+00	-1.133E+00	5.826E+01	1.389E+02	7.116E+02	3.781E+03
33.30	2.231E+01	4.960E+03	1.235E+01	-4.688E-01	6.284E-01	8.031E-01	-3.870E-01	1.873E+00	-1.114E+00	5.869E+01	1.458E+02	6.983E+02	3.795E+03
33.35	2.269E+01	4.954E+03	1.234E+01	-4.743E-01	6.611E-01	8.558E-01	-4.501E-01	1.803E+00	-1.080E+00	6.693E+01	1.504E+02	6.876E+02	3.879E+03
33.40	2.248E+01	4.953E+03	1.235E+01	-4.875E-01	6.951E-01	9.033E-01	-5.132E-01	1.700E+00	-1.028E+00	7.930E+01	1.512E+02	6.793E+02	4.043E+03
33.45	2.203E+01	4.959E+03	1.234E+01	-4.879E-01	7.217E-01	9.575E-01	-5.776E-01	1.574E+00	-9.620E-01	8.385E+01	1.505E+02	6.676E+02	4.213E+03
33.50	2.196E+01	4.968E+03	1.232E+01	-4.623E-01	7.281E-01	1.028E+00	-6.480E-01	1.428E+00	-8.857E-01	8.408E+01	1.511E+02	6.556E+02	4.254E+03
33.55	2.228E+01	4.976E+03	1.231E+01	-4.117E-01	7.111E-01	1.122E+00	-7.255E-01	1.258E+00	-7.990E-01	8.561E+01	1.523E+02	6.473E+02	4.140E+03
33.60	2.273E+01	4.976E+03	1.230E+01	-3.486E-01	6.795E-01	1.232E+00	-8.052E-01	1.066E+00	-7.010E-01	7.824E+01	1.563E+02	6.363E+02	3.955E+03
33.65	2.297E+01	4.970E+03	1.230E+01	-2.890E-01	6.423E-01	1.340E+00	-8.774E-01	8.685E-01	-5.920E-01	7.644E+01	1.525E+02	6.235E+02	3.812E+03
33.70	2.303E+01	4.961E+03	1.229E+01	-2.410E-01	6.024E-01	1.420E+00	-9.321E-01	6.747E-01	-4.732E-01	8.036E+01	1.452E+02	6.164E+02	3.766E+03
33.75	2.265E+01	4.953E+03	1.227E+01	-2.010E-01	5.579E-01	1.465E+00	-9.718E-01	4.881E-01	-3.535E-01	8.551E+01	1.366E+02	6.070E+02	3.784E+03
33.80	2.228E+01	4.946E+03	1.224E+01	-1.656E-01	5.078E-01	1.483E+00	-1.001E+00	3.205E-01	-2.425E-01	8.902E+01	1.252E+02	5.934E+02	3.818E+03
33.85	2.179E+01	4.940E+03	1.221E+01	-1.332E-01	4.519E-01	1.488E+00	-1.021E+00	1.736E-01	-1.416E-01	9.484E+01	1.161E+02	5.830E+02	3.846E+03
33.90	2.139E+01	4.936E+03	1.220E+01	-9.233E-02	3.933E-01	1.492E+00	-1.036E+00	3.688E-02	-4.802E-02	9.849E+01	1.098E+02	5.732E+02	3.885E+03
33.95	2.147E+01	4.934E+03	1.218E+01	-3.307E-02	3.348E-01	1.505E+00	-1.048E+00	-8.826E-02	3.738E-02	9.570E+01	9.682E+01	5.561E+02	3.944E+03
34.00	2.099E+01	4.933E+03	1.216E+01	4.559E-02	2.735E-01	1.535E+00	-1.064E+00	-1.925E-01	1.101E-01	9.635E+01	9.016E+01	5.450E+02	3.983E+03
34.05	2.056E+01	4.934E+03	1.215E+01	1.482E-01	2.101E-01	1.580E+00	-1.086E+00	-2.630E-01	1.653E-01	9.979E+01	8.336E+01	5.342E+02	3.996E+03
34.10	2.086E+01	4.935E+03	1.213E+01	2.690E-01	1.500E-01	1.630E+00	-1.110E+00	-2.950E-01	2.023E-01	9.861E+01	7.563E+01	5.212E+02	3.982E+03
34.15	2.100E+01	4.933E+03	1.210E+01	3.871E-01	9.713E-02	1.684E+00	-1.137E+00	-2.972E-01	2.237E-01	1.018E+02	7.309E+01	5.119E+02	3.925E+03
34.20	2.069E+01	4.930E+03	1.209E+01	4.874E-01	5.980E-02	1.736E+00	-1.160E+00	-2.749E-01	2.345E-01	1.128E+02	6.540E+01	5.025E+02	3.885E+03
34.25	2.051E+01	4.926E+03	1.209E+01	5.678E-01	3.960E-02	1.786E+00	-1.178E+00	-2.333E-01	2.406E-01	1.225E+02	5.485E+01	4.920E+02	3.907E+03
34.30	2.009E+01	4.925E+03	1.207E+01	6.390E-01	2.601E-02	1.831E+00	-1.191E+00	-1.866E-01	2.466E-01	1.310E+02	4.403E+01	4.836E+02	3.971E+03
34.35	2.026E+01	4.925E+03	1.205E+01	7.198E-01	3.941E-03	1.868E+00	-1.204E+00	-1.494E-01	2.533E-01	1.355E+02	3.700E+01	4.762E+02	4.025E+03
34.40	2.077E+01	4.927E+03	1.204E+01	8.070E-01	-2.981E-02	1.909E+00	-1.223E+00	-1.212E-01	2.603E-01	1.350E+02	3.092E+01	4.688E+02	4.060E+03
34.45	2.119E+01	4.930E+03	1.204E+01	8.740E-01	-6.644E-02	1.962E+00	-1.247E+00	-9.610E-02	2.694E-01	1.332E+02	2.461E+01	4.632E+02	4.093E+03
34.50	2.127E+01	4.934E+03	1.204E+01	9.136E-01	-1.021E-01	2.029E+00	-1.272E+00	-7.329E-02	2.840E-01	1.323E+02	1.716E+01	4.600E+02	4.138E+03
34.55	2.110E+01	4.939E+03	1.203E+01	9.298E-01	-1.374E-01	2.093E+00	-1.293E+00	-5.619E-02	3.053E-01	1.329E+02	6.808E+00	4.571E+02	4.173E+03
34.60	2.098E+01	4.945E+03	1.203E+01	9.246E-01	-1.717E-01	2.134E+00	-1.302E+00	-4.863E-02	3.346E-01	1.330E+02	-8.506E+00	4.542E+02	4.198E+03
34.65	2.065E+01	4.951E+03	1.203E+01	9.032E-01	-2.071E-01	2.136E+00	-1.292E+00	-5.362E-02	3.707E-01	1.351E+02	-2.368E+01	4.532E+02	4.204E+03
34.70	2.016E+01	4.955E+03	1.203E+01	8.749E-01	-2.474E-01	2.101E+00	-1.264E+00	-6.396E-02	4.072E-01	1.358E+02	-3.588E+01	4.526E+02	4.180E+03
34.75	2.038E+01	4.959E+03	1.203E+01	8.442E-01	-2.914E-01	2.039E+00	-1.227E+00	-6.838E-02	4.394E-01	1.384E+02	-5.238E+01	4.517E+02	4.139E+03
34.80	2.030E+01	4.960E+03	1.202E+01	8.076E-01	-3.340E-01	1.960E+00	-1.181E+00	-6.406E-02	4.664E-01	1.393E+02	-6.944E+01	4.512E+02	4.103E+03
34.85	2.015E+01	4.959E+03	1.202E+01	7.671E-01	-3.733E-01	1.858E+00	-1.124E+00	-5.981E-02	4.890E-01	1.367E+02	-7.940E+01	4.506E+02	4.066E+03
34.90	2.017E+01	4.958E+03	1.202E+01	7.370E-01	-4.085E-01	1.730E+00	-1.053E+00	-6.249E-02	5.127E-01	1.387E+02	-9.457E+01	4.498E+02	4.070E+03
34.95	2.082E+01	4.958E+03	1.201E+01	7.173E-01	-4.381E-01	1.588E+00	-9.738E-01	-7.426E-02	5.382E-01	1.381E+02	-1.119E+02	4.503E+02	4.102E+03
35.00	2.091E+01	4.958E+03	1.200E+01	7.051E-01	-4.662E-01	1.450E+00	-8.960E-01	-9.381E-02	5.574E-01	1.362E+02	-1.240E+02	4.516E+02	4.109E+03
35.05	2.085E+01	4.958E+03	1.199E+01	7.131E-01	-4.987E-01	1.313E+00	-8.205E-01	-1.139E-01	5.645E-01	1.359E+02	-1.334E+02	4.528E+02	4.093E+03
35.10	2.138E+01	4.958E+03	1.198E+01	7.468E-01	-5.365E-01	1.163E+00	-7.432E-01	-1.152E-01	5.558E-01	1.359E+02	-1.428E+02	4.559E+02	4.085E+03
35.15	2.146E+01	4.957E+03	1.197E+01	8.084E-01	-5.803E-01	9.888E-01	-6.593E-01	-7.885E-02	5.260E-01	1.384E+02	-1.528E+02	4.601E+02	4.074E+03
35.20	2.170E+01	4.955E+03	1.195E+01	9.090E-01	-6.339E-01	7.910E-01	-5.684E-01	-7.358E-03	4.769E-01	1.371E+02	-1.601E+02	4.654E+02	4.043E+03
35.25	2.208E+01	4.952E+03	1.193E+01	1.056E+00	-7.002E-01	5.774E-01	-4.724E-01	8.088E-02	4.172E-01	1.371E+02	-1.647E+02	4.707E+02	3.993E+03
35.30	2.212E+01	4.947E+03	1.192E+01	1.233E+00	-7.737E-01	3.592E-01	-3.727E-01	1.723E-01	3.560E-01	1.367E+02	-1.690E+02	4.756E+02	3.964E+03
35.35	2.219E+01	4.942E+03	1.190E+01	1.410E+00	-8.468E-01	1.547E-01	-2.740E-01	2.537E-01	3.018E-01	1.384E+02	-1.756E+02	4.807E+02	3.980E+03
35.40	2.191E+01	4.939E+03	1.189E+01	1.562E+00	-9.156E-01	-2.003E-02	-1.823E-01	3.132E-01	2.595E-01	1.490E+02	-1.861E+02	4.863E+02	4.030E+03
35.45	2.199E+01	4.938E+03	1.188E+01	1.673E+00	-9.754E-01	-1.483E-01	-1.011E-01	3.515E-01	2.302E-01	1.615E+02	-1.975E+02	4.926E+02	4.103E+03
35.50	2.228E+01	4.940E+03	1.187E+01	1.748E+00	-1.027E+00	-2.287E-01	-2.988E-02	3.781E-01	2.108E-01	1.739E+02	-2.088E+02	4.975E+02	4.165E+03
35.55	2.197E+01	4.943E+03	1.186E+01	1.795E+00	-1.072E+00	-2.746E-01	3.406E-02	4.025E-01	1.987E-01	1.780E+02	-2.170E+02	5.045E+02	4.193E+03
35.60	2.148E+01	4.945E+03	1.184E+01	1.819E+00	-1.113E+00	-3.010E-01	9.063E-02	4.350E-01	1.870E-01	1.857E+02	-2.286E+02	5.111E+02	4.151E+03
35.65	2.183E+01	4.945E+03	1.183E+01	1.822E+00	-1.148E+00	-3.188E-01	1.416E-01	4.890E-01	1.692E-01	1.866E+02	-2.358E+02	5.187E+02	4.078E+03
35.70	2.229E+01	4.943E+03	1.182E+01	1.816E+00	-1.177E+00	-3.247E-01	1.879E-01	5.703E-01	1.440E-01	1.884E+02	-2.465E+02	5.239E+02	4.044E+03
35.75	2.255E+01	4.940E+03	1.181E+01	1.812E+00	-1.203E+00	-3.089E-01	2.255E-01	6.753E-01	1.110E-01	1.801E+02	-2.530E+02	5.326E+02	4.054E+03
35.80	2.298E+01	4.937E+03	1.178E+01	1.813E+00	-1.231E+00	-2.647E-01	2.457E-01	7.864E-01	6.683E-02	1.739E+02	-2.566E+02	5.395E+02	4.038E+03
35.85	2.253E+01	4.934E+03	1.177E+01	1.821E+00	-1.259E+00	-1.921E-01	2.484E-01	8.842E-01	1.743E-02	1.675E+02	-2.550E+02	5.467E+02	4.020E+03
35.90	2.190E+01	4.931E+03	1.177E+01	1.831E+00	-1.275E+00	-9.418E-02	2.415E-01	9.539E-01	-2.468E-02	1.642E+02	-2.555E+02	5.550E+02	4.082E+03
35.95	2.173E+01	4.932E+03	1.177E+01	1.836E+00	-1.271E+00	2.042E-02	2.296E-01	9.942E-01	-5.692E-02	1.611E+02	-2.552E+02	5.642E+02	4.211E+03
36.00	2.149E+01	4.938E+03	1.177E+01	1.835E+00	-1.251E+00	1.420E-01	2.116E-01	1.019E+00	-8.799E-02	1.608E+02	-2.531E+02	5.734E+02	4.332E+03
36.05	2.155E+01	4.947E+03	1.176E+01	1.839E+00	-1.223E+00	2.722E-01	1.854E-01	1.048E+00	-1.269E-01	1.640E+02	-2.492E+02	5.831E+02	4.401E+03
36.10	2.206E+01	4.957E+03	1.176E+01	1.857E+00	-1.194E+00	4.139E-01	1.511E-01	1.096E+00	-1.785E-01	1.703E+02	-2.454E+02	5.937E+02	4.407E+03
36.15	2.226E+01	4.965E+03	1.177E+01	1.901E+00	-1.171E+00	5.613E-01	1.127E-01	1.158E+00	-2.409E-01	1.763E+02	-2.411E+02	6.041E+02	4.358E+03
36.20	2.276E+01	4.970E+03	1.176E+01	1.965E+00	-1.154E+00	6.900E-01	7.940E-02	1.228E+00	-3.100E-01	1.803E+02	-2.354E+02	6.143E+02	4.274E+03
36.25	2.260E+01	4.970E+03	1.176E+01	2.025E+00	-1.140E+00	7.769E-01	5.942E-02	1.295E+00	-3.786E-01	1.866E+02	-2.308E+02	6.241E+02	4.184E+03
36.30	2.215E+01	4.968E+03	1.177E+01	2.061E+00	-1.122E+00	8.134E-01	5.776E-02	1.338E+00	-4.350E-01	1.884E+02	-2.216E+02	6.362E+02	4.140E+03
36.35	2.231E+01	4.966E+03	1.177E+01	2.066E+00	-1.098E+00	8.056E-01	7.485E-02	1.344E+00	-4.699E-01	1.923E+02	-2.188E+02	6.463E+02	4.180E+03
36.40	2.235E+01	4.967E+03	1.178E+01	2.037E+00	-1.069E+00	7.805E-01	1.029E-01	1.308E+00	-4.814E-01	1.917E+02	-2.151E+02	6.570E+02	4.292E+03
36.45	2.252E+01	4.972E+03	1.178E+01	1.977E+00	-1.041E+00	7.643E-01	1.306E-01	1.247E+00	-4.787E-01	1.934E+02	-2.163E+02	6.674E+02	4.398E+03
36.50	2.232E+01	4.980E+03	1.177E+01	1.892E+00	-1.018E+00	7.694E-01	1.480E-01	1.179E+00	-4.749E-01	1.913E+02	-2.133E+02	6.763E+02	4.417E+03
36.55	2.216E+01	4.986E+03	1.177E+01	1.787E+00	-1.001E+00	7.848E-01	1.581E-01	1.125E+00	-4.771E-01	1.852E+02	-2.076E+02	6.849E+02	4.352E+03
36.60	2.190E+01	4.988E+03	1.177E+01	1.682E+00	-9.854E-01	7.857E-01	1.715E-01	1.103E+00	-4.890E-01	1.736E+02	-2.026E+02	6.913E+02	4.263E+03
36.65	2.205E+01	4.987E+03	1.177E+01	1.574E+00	-9.655E-01	7.538E-01	1.968E-01	1.126E+00	-5.114E-01	1.617E+02	-1.973E+02	6.988E+02	4.200E+03
36.70	2.175E+01	4.984E+03	1.177E+01	1.457E+00	-9.332E-01	6.794E-01	2.373E-01	1.190E+00	-5.449E-01	1.527E+02	-1.915E+02	7.070E+02	4.177E+03
36.75	2.171E+01	4.981E+03	1.177E+01	1.325E+00	-8.838E-01	5.736E-01	2.884E-01	1.291E+00	-5.908E-01	1.519E+02	-1.864E+02	7.141E+02	4.197E+03
36.80	2.178E+01	4.980E+03	1.177E+01	1.188E+00	-8.195E-01	4.649E-01	3.404E-01	1.418E+00	-6.482E-01	1.576E+02	-1.809E+02	7.206E+02	4.252E+03
36.85	2.133E+01	4.982E+03	1.178E+01	1.060E+00	-7.431E-01	3.809E-01	3.835E-01	1.559E+00	-7.141E-01	1.658E+02	-1.751E+02	7.256E+02	4.340E+03
36.90	2.114E+01	4.987E+03	1.177E+01	9.562E-01	-6.627E-01	3.387E-01	4.078E-01	1.706E+00	-7.897E-01	1.620E+02	-1.652E+02	7.281E+02	4.399E+03
36.95	2.131E+01	4.992E+03	1.176E+01	8.868E-01	-5.909E-01	3.437E-01	4.041E-01	1.866E+00	-8.841E-01	1.521E+02	-1.499E+02	7.295E+02	4.353E+03
37.00	2.133E+01	4.993E+03	1.175E+01	8.476E-01	-5.290E-01	3.839E-01	3.774E-01	2.038E+00	-9.953E-01	1.395E+02	-1.272E+02	7.330E+02	4.235E+03
37.05	2.123E+01	4.989E+03	1.175E+01	8.262E-01	-4.699E-01	4.354E-01	3.384E-01	2.205E+00	-1.111E+00	1.264E+02	-1.059E+02	7.357E+02	4.117E+03
37.10	2.077E+01	4.982E+03	1.175E+01	8.030E-01	-4.048E-01	4.822E-01	2.995E-01	2.367E+00	-1.223E+00	1.147E+02	-8.703E+01	7.388E+02	4.088E+03
37.15	2.120E+01	4.976E+03	1.175E+01	7.640E-01	-3.311E-01	5.099E-01	2.716E-01	2.519E+00	-1.325E+00	1.055E+02	-6.765E+01	7.435E+02	4.153E+03
37.20	2.103E+01	4.974E+03	1.173E+01	7.052E-01	-2.540E-01	5.084E-01	2.518E-01	2.649E+00	-1.413E+00	1.005E+02	-5.082E+01	7.470E+02	4.220E+03
37.25	2.025E+01	4.974E+03	1.173E+01	6.359E-01	-1.802E-01	4.947E-01	2.349E-01	2.745E+00	-1.484E+00	1.021E+02	-3.738E+01	7.502E+02	4.275E+03
37.30	1.996E+01	4.977E+03	1.174E+01	5.696E-01	-1.138E-01	4.888E-01	2.220E-01	2.805E+00	-1.533E+00	1.031E+02	-2.206E+01	7.528E+02	4.347E+03
37.35	2.007E+01	4.982E+03	1.173E+01	5.202E-01	-6.046E-02	5.054E-01	2.049E-01	2.838E+00	-1.560E+00	1.014E+02	-1.097E+01	7.537E+02	4.394E+03
37.40	2.016E+01	4.987E+03	1.173E+01	4.901E-01	-2.362E-02	5.616E-01	1.742E-01	2.849E+00	-1.569E+00	9.824E+01	-1.780E+00	7.547E+02	4.376E+03
37.45	1.990E+01	4.989E+03	1.172E+01	4.641E-01	9.148E-04	6.710E-01	1.281E-01	2.826E+00	-1.558E+00	9.674E+01	7.096E+00	7.540E+02	4.305E+03
37.50	1.933E+01	4.988E+03	1.171E+01	4.367E-01	1.625E-02	8.310E-01	6.431E-02	2.774E+00	-1.531E+00	9.691E+01	1.731E+01	7.529E+02	4.202E+03
37.55	1.926E+01	4.984E+03	1.171E+01	4.166E-01	2.553E-02	1.022E+00	-1.098E-02	2.710E+00	-1.490E+00	1.010E+02	2.091E+01	7.521E+02	4.133E+03
37.60	1.946E+01	4.978E+03	1.171E+01	4.091E-01	3.056E-02	1.224E+00	-8.965E-02	2.646E+00	-1.442E+00	1.077E+02	2.405E+01	7.499E+02	4.138E+03
37.65	1.932E+01	4.974E+03	1.170E+01	4.175E-01	3.063E-02	1.413E+00	-1.687E-01	2.589E+00	-1.398E+00	1.125E+02	2.971E+01	7.454E+02	4.185E+03
37.70	1.924E+01	4.973E+03	1.170E+01	4.404E-01	2.790E-02	1.574E+00	-2.468E-01	2.555E+00	-1.364E+00	1.196E+02	3.212E+01	7.406E+02	4.247E+03
37.75	1.967E+01	4.974E+03	1.169E+01	4.744E-01	2.516E-02	1.695E+00	-3.201E-01	2.539E+00	-1.343E+00	1.266E+02	3.652E+01	7.350E+02	4.303E+03
37.80	1.945E+01	4.977E+03	1.170E+01	5.186E-01	2.702E-02	1.769E+00	-3.823E-01	2.537E+00	-1.332E+00	1.330E+02	4.421E+01	7.281E+02	4.374E+03
37.85	1.962E+01	4.983E+03	1.172E+01	5.709E-01	3.926E-02	1.805E+00	-4.300E-01	2.546E+00	-1.326E+00	1.385E+02	5.239E+01	7.211E+02	4.474E+03
37.90	1.917E+01	4.993E+03	1.174E+01	6.256E-01	6.394E-02	1.816E+00	-4.644E-01	2.557E+00	-1.319E+00	1.441E+02	5.958E+01	7.141E+02	4.580E+03
37.95	1.900E+01	5.005E+03	1.174E+01	6.769E-01	9.668E-02	1.818E+00	-4.930E-01	2.558E+00	-1.311E+00	1.466E+02	6.867E+01	7.054E+02	4.618E+03
38.00	1.935E+01	5.015E+03	1.174E+01	7.202E-01	1.299E-01	1.811E+00	-5.214E-01	2.537E+00	-1.302E+00	1.474E+02	8.041E+01	6.971E+02	4.535E+03
38.05	1.977E+01	5.020E+03	1.175E+01	7.548E-01	1.604E-01	1.779E+00	-5.448E-01	2.488E+00	-1.291E+00	1.471E+02	9.386E+01	6.898E+02	4.385E+03
38.10	2.009E+01	5.019E+03	1.176E+01	7.790E-01	1.909E-01	1.713E+00	-5.561E-01	2.434E+00	-1.279E+00	1.454E+02	1.049E+02	6.824E+02	4.265E+03
38.15	2.004E+01	5.015E+03	1.177E+01	7.912E-01	2.217E-01	1.614E+00	-5.548E-01	2.392E+00	-1.268E+00	1.453E+02	1.120E+02	6.757E+02	4.216E+03
38.20	1.956E+01	5.010E+03	1.177E+01	7.975E-01	2.468E-01	1.497E+00	-5.471E-01	2.356E+00	-1.255E+00	1.448E+02	1.168E+02	6.688E+02	4.213E+03
38.25	1.976E+01	5.006E+03	1.177E+01	8.066E-01	2.600E-01	1.383E+00	-5.416E-01	2.316E+00	-1.239E+00	1.408E+02	1.241E+02	6.603E+02	4.228E+03
38.30	2.038E+01	5.003E+03	1.176E+01	8.213E-01	2.595E-01	1.301E+00	-5.464E-01	2.265E+00	-1.214E+00	1.404E+02	1.264E+02	6.507E+02	4.257E+03
38.35	2.027E+01	5.002E+03	1.177E+01	8.476E-01	2.435E-01	1.272E+00	-5.674E-01	2.194E+00	-1.173E+00	1.453E+02	1.258E+02	6.435E+02	4.310E+03
38.40	2.003E+01	5.003E+03	1.178E+01	8.944E-01	2.132E-01	1.304E+00	-6.044E-01	2.095E+00	-1.115E+00	1.441E+02	1.266E+02	6.346E+02	4.392E+03
38.45	2.011E+01	5.008E+03	1.178E+01	9.613E-01	1.713E-01	1.388E+00	-6.555E-01	1.976E+00	-1.043E+00	1.379E+02	1.274E+02	6.227E+02	4.460E+03
38.50	2.024E+01	5.014E+03	1.177E+01	1.038E+00	1.213E-01	1.509E+00	-7.190E-01	1.847E+00	-9.618E-01	1.353E+02	1.280E+02	6.136E+02	4.451E+03
38.55	2.047E+01	5.017E+03	1.178E+01	1.113E+00	7.221E-02	1.646E+00	-7.885E-01	1.721E+00	-8.765E-01	1.357E+02	1.291E+02	6.045E+02	4.378E+03
38.60	1.987E+01	5.017E+03	1.179E+01	1.173E+00	3.619E-02	1.779E+00	-8.554E-01	1.615E+00	-7.922E-01	1.333E+02	1.279E+02	5.909E+02	4.309E+03
38.65	1.974E+01	5.016E+03	1.180E+01	1.212E+00	1.738E-02	1.902E+00	-9.162E-01	1.545E+00	-7.142E-01	1.390E+02	1.235E+02	5.798E+02	4.288E+03
38.70	1.954E+01	5.014E+03	1.180E+01	1.232E+00	1.281E-02	2.017E+00	-9.734E-01	1.514E+00	-6.473E-01	1.465E+02	1.178E+02	5.715E+02	4.307E+03
38.75	1.952E+01	5.014E+03	1.180E+01	1.249E+00	1.268E-02	2.129E+00	-1.035E+00	1.495E+00	-5.944E-01	1.489E+02	1.122E+02	5.586E+02	4.311E+03
38.80	1.943E+01	5.013E+03	1.179E+01	1.274E+00	6.509E-03	2.248E+00	-1.109E+00	1.457E+00	-5.489E-01	1.490E+02	1.126E+02	5.475E+02	4.266E+03
38.85	1.945E+01	5.009E+03	1.179E+01	1.316E+00	-7.284E-03	2.392E+00	-1.195E+00	1.377E+00	-5.014E-01	1.482E+02	1.161E+02	5.390E+02	4.221E+03
38.90	1.954E+01	5.006E+03	1.179E+01	1.380E+00	-2.611E-02	2.562E+00	-1.291E+00	1.251E+00	-4.432E-01	1.492E+02	1.124E+02	5.277E+02	4.237E+03
38.95	1.959E+01	5.004E+03	1.180E+01	1.460E+00	-4.955E-02	2.735E+00	-1.384E+00	1.090E+00	-3.736E-01	1.476E+02	1.113E+02	5.194E+02	4.297E+03
39.00	1.960E+01	5.005E+03	1.180E+01	1.544E+00	-7.805E-02	2.880E+00	-1.465E+00	9.119E-01	-2.993E-01	1.551E+02	1.055E+02	5.115E+02	4.352E+03
39.05	1.964E+01	5.007E+03	1.180E+01	1.623E+00	-1.101E-01	2.970E+00	-1.525E+00	7.460E-01	-2.283E-01	1.600E+02	9.844E+01	5.025E+02	4.379E+03
39.10	1.922E+01	5.010E+03	1.180E+01	1.695E+00	-1.471E-01	3.005E+00	-1.561E+00	6.105E-01	-1.644E-01	1.640E+02	9.561E+01	4.953E+02	4.378E+03
39.15	1.950E+01	5.013E+03	1.181E+01	1.771E+00	-1.909E-01	3.002E+00	-1.574E+00	5.076E-01	-1.035E-01	1.757E+02	8.480E+01	4.884E+02	4.384E+03
39.20	1.976E+01	5.016E+03	1.182E+01	1.861E+00	-2.439E-01	2.960E+00	-1.561E+00	4.360E-01	-4.369E-02	1.851E+02	7.438E+01	4.829E+02	4.393E+03
39.25	2.036E+01	5.018E+03	1.182E+01	1.958E+00	-3.050E-01	2.885E+00	-1.529E+00	3.914E-01	1.356E-02	1.898E+02	6.177E+01	4.749E+02	4.379E+03
39.30	2.026E+01	5.019E+03	1.182E+01	2.049E+00	-3.709E-01	2.797E+00	-1.485E+00	3.689E-01	6.682E-02	1.900E+02	5.029E+01	4.674E+02	4.329E+03
39.35	2.011E+01	5.018E+03	1.181E+01	2.124E+00	-4.402E-01	2.711E+00	-1.437E+00	3.672E-01	1.117E-01	1.900E+02	4.096E+01	4.612E+02	4.247E+03
39.40	1.981E+01	5.013E+03	1.181E+01	2.182E+00	-5.096E-01	2.634E+00	-1.393E+00	3.869E-01	1.454E-01	1.872E+02	2.920E+01	4.531E+02	4.175E+03
39.45	1.979E+01	5.007E+03	1.182E+01	2.216E+00	-5.732E-01	2.581E+00	-1.357E+00	4.243E-01	1.690E-01	1.850E+02	1.685E+01	4.459E+02	4.160E+03
39.50	1.998E+01	5.003E+03	1.182E+01	2.221E+00	-6.260E-01	2.569E+00	-1.336E+00	4.763E-01	1.829E-01	1.861E+02	5.160E+00	4.408E+02	4.206E+03
39.55	2.013E+01	5.001E+03	1.182E+01	2.198E+00	-6.642E-01	2.596E+00	-1.332E+00	5.417E-01	1.872E-01	1.887E+02	-6.703E+00	4.360E+02	4.295E+03
39.60	1.990E+01	5.003E+03	1.182E+01	2.152E+00	-6.862E-01	2.641E+00	-1.337E+00	6.143E-01	1.833E-01	1.897E+02	-2.084E+01	4.306E+02	4.381E+03
39.65	1.972E+01	5.008E+03	1.183E+01	2.088E+00	-6.915E-01	2.680E+00	-1.343E+00	6.845E-01	1.739E-01	1.939E+02	-3.018E+01	4.267E+02	4.443E+03
39.70	1.943E+01	5.014E+03	1.184E+01	2.006E+00	-6.770E-01	2.697E+00	-1.341E+00	7.430E-01	1.656E-01	1.886E+02	-3.785E+01	4.231E+02	4.496E+03
39.75	1.869E+01	5.022E+03	1.185E+01	1.918E+00	-6.493E-01	2.692E+00	-1.334E+00	7.820E-01	1.602E-01	1.821E+02	-4.678E+01	4.196E+02	4.506E+03
39.80	1.855E+01	5.028E+03	1.185E+01	1.827E+00	-6.164E-01	2.679E+00	-1.327E+00	7.935E-01	1.580E-01	1.748E+02	-5.030E+01	4.176E+02	4.444E+03
39.85	1.884E+01	5.030E+03	1.187E+01	1.728E+00	-5.797E-01	2.662E+00	-1.320E+00	7.763E-01	1.632E-01	1.686E+02	-5.254E+01	4.174E+02	4.352E+03
39.90	1.903E+01	5.029E+03	1.188E+01	1.624E+00	-5.398E-01	2.641E+00	-1.308E+00	7.456E-01	1.774E-01	1.646E+02	-5.891E+01	4.194E+02	4.299E+03
39.95	1.908E+01	5.027E+03	1.188E+01	1.523E+00	-5.045E-01	2.621E+00	-1.292E+00	7.253E-01	1.928E-01	1.651E+02	-6.941E+01	4.232E+02	4.267E+03
40.00	1.943E+01	5.024E+03	1.187E+01	1.445E+00	-4.881E-01	2.601E+00	-1.276E+00	7.300E-01	1.992E-01	1.673E+02	-7.961E+01	4.283E+02	4.215E+03
40.05	1.932E+01	5.019E+03	1.187E+01	1.407E+00	-4.993E-01	2.582E+00	-1.261E+00	7.663E-01	1.918E-01	1.676E+02	-8.709E+01	4.340E+02	4.161E+03
40.10	1.903E+01	5.013E+03	1.187E+01	1.416E+00	-5.373E-01	2.538E+00	-1.236E+00	8.344E-01	1.732E-01	1.690E+02	-9.832E+01	4.400E+02	4.165E+03
40.15	1.916E+01	5.009E+03	1.188E+01	1.472E+00	-5.986E-01	2.449E+00	-1.191E+00	9.222E-01	1.491E-01	1.655E+02	-1.088E+02	4.466E+02	4.237E+03
40.20	1.953E+01	5.009E+03	1.189E+01	1.566E+00	-6.761E-01	2.312E+00	-1.120E+00	1.008E+00	1.264E-01	1.635E+02	-1.193E+02	4.507E+02	4.351E+03
40.25	1.954E+01	5.014E+03	1.190E+01	1.682E+00	-7.606E-01	2.140E+00	-1.028E+00	1.076E+00	1.141E-01	1.645E+02	-1.324E+02	4.554E+02	4.477E+03
40.30	1.977E+01	5.023E+03	1.191E+01	1.804E+00	-8.450E-01	1.960E+00	-9.230E-01	1.127E+00	1.126E-01	1.673E+02	-1.478E+02	4.621E+02	4.561E+03
40.35	1.970E+01	5.033E+03	1.192E+01	1.921E+00	-9.262E-01	1.811E+00	-8.211E-01	1.173E+00	1.137E-01	1.754E+02	-1.621E+02	4.685E+02	4.566E+03
40.40	1.937E+01	5.041E+03	1.194E+01	2.027E+00	-9.993E-01	1.721E+00	-7.333E-01	1.225E+00	1.128E-01	1.838E+02	-1.769E+02	4.750E+02	4.524E+03
40.45	1.973E+01	5.046E+03	1.195E+01	2.127E+00	-1.067E+00	1.692E+00	-6.679E-01	1.288E+00	1.040E-01	1.935E+02	-1.931E+02	4.817E+02	4.431E+03
40.50	2.003E+01	5.046E+03	1.194E+01	2.230E+00	-1.137E+00	1.689E+00	-6.214E-01	1.359E+00	7.948E-02	2.004E+02	-2.058E+02	4.883E+02	4.268E+03
40.55	1.982E+01	5.039E+03	1.194E+01	2.337E+00	-1.210E+00	1.663E+00	-5.802E-01	1.439E+00	3.627E-02	2.002E+02	-2.107E+02	4.935E+02	4.082E+03
40.60	1.923E+01	5.027E+03	1.194E+01	2.438E+00	-1.273E+00	1.583E+00	-5.285E-01	1.536E+00	-2.128E-02	1.956E+02	-2.137E+02	4.984E+02	3.989E+03
40.65	1.935E+01	5.016E+03	1.195E+01	2.519E+00	-1.319E+00	1.445E+00	-4.594E-01	1.653E+00	-8.788E-02	1.930E+02	-2.201E+02	5.056E+02	4.046E+03
40.70	1.934E+01	5.009E+03	1.196E+01	2.583E+00	-1.349E+00	1.264E+00	-3.768E-01	1.792E+00	-1.630E-01	1.905E+02	-2.249E+02	5.152E+02	4.208E+03
40.75	1.931E+01	5.011E+03	1.196E+01	2.643E+00	-1.370E+00	1.075E+00	-2.925E-01	1.941E+00	-2.456E-01	1.897E+02	-2.306E+02	5.226E+02	4.387E+03
40.80	1.976E+01	5.018E+03	1.196E+01	2.708E+00	-1.392E+00	9.019E-01	-2.157E-01	2.081E+00	-3.299E-01	1.840E+02	-2.297E+02	5.334E+02	4.506E+03
40.85	2.023E+01	5.027E+03	1.197E+01	2.766E+00	-1.410E+00	7.459E-01	-1.451E-01	2.201E+00	-4.104E-01	1.835E+02	-2.272E+02	5.428E+02	4.544E+03
40.90	2.035E+01	5.037E+03	1.199E+01	2.796E+00	-1.415E+00	6.093E-01	-7.481E-02	2.297E+00	-4.782E-01	1.879E+02	-2.261E+02	5.536E+02	4.546E+03
40.95	1.953E+01	5.045E+03	1.202E+01	2.788E+00	-1.401E+00	4.981E-01	-2.632E-03	2.371E+00	-5.279E-01	1.982E+02	-2.290E+02	5.657E+02	4.527E+03
41.00	1.897E+01	5.052E+03	1.202E+01	2.752E+00	-1.374E+00	4.115E-01	6.927E-02	2.417E+00	-5.601E-01	2.051E+02	-2.330E+02	5.771E+02	4.456E+03
41.05	1.907E+01	5.053E+03	1.202E+01	2.694E+00	-1.341E+00	3.454E-01	1.345E-01	2.427E+00	-5.787E-01	2.080E+02	-2.351E+02	5.882E+02	4.307E+03
41.10	1.867E+01	5.048E+03	1.202E+01	2.618E+00	-1.312E+00	3.009E-01	1.867E-01	2.401E+00	-5.881E-01	2.060E+02	-2.352E+02	6.008E+02	4.122E+03
41.15	1.845E+01	5.038E+03	1.202E+01	2.540E+00	-1.291E+00	2.790E-01	2.247E-01	2.342E+00	-5.924E-01	1.970E+02	-2.330E+02	6.128E+02	3.998E+03
41.20	1.915E+01	5.025E+03	1.203E+01	2.472E+00	-1.278E+00	2.795E-01	2.509E-01	2.263E+00	-5.935E-01	1.858E+02	-2.316E+02	6.229E+02	4.004E+03
41.25	1.957E+01	5.017E+03	1.203E+01	2.415E+00	-1.274E+00	3.003E-01	2.661E-01	2.168E+00	-5.917E-01	1.736E+02	-2.296E+02	6.346E+02	4.111E+03
41.30	1.969E+01	5.013E+03	1.202E+01	2.357E+00	-1.273E+00	3.404E-01	2.676E-01	2.063E+00	-5.901E-01	1.613E+02	-2.259E+02	6.455E+02	4.221E+03
41.35	1.980E+01	5.013E+03	1.201E+01	2.292E+00	-1.271E+00	4.014E-01	2.551E-01	1.946E+00	-5.857E-01	1.564E+02	-2.223E+02	6.567E+02	4.291E+03
41.40	2.022E+01	5.016E+03	1.202E+01	2.224E+00	-1.260E+00	4.746E-01	2.364E-01	1.810E+00	-5.702E-01	1.544E+02	-2.174E+02	6.692E+02	4.351E+03
41.45	2.028E+01	5.021E+03	1.204E+01	2.166E+00	-1.239E+00	5.467E-01	2.206E-01	1.660E+00	-5.407E-01	1.634E+02	-2.171E+02	6.809E+02	4.435E+03
41.50	1.935E+01	5.030E+03	1.206E+01	2.120E+00	-1.207E+00	6.119E-01	2.124E-01	1.511E+00	-5.024E-01	1.782E+02	-2.198E+02	6.928E+02	4.526E+03
41.55	1.866E+01	5.040E+03	1.207E+01	2.090E+00	-1.170E+00	6.690E-01	2.077E-01	1.375E+00	-4.670E-01	1.872E+02	-2.178E+02	7.021E+02	4.530E+03
41.60	1.847E+01	5.046E+03	1.206E+01	2.093E+00	-1.136E+00	7.188E-01	2.016E-01	1.261E+00	-4.438E-01	1.872E+02	-2.108E+02	7.077E+02	4.399E+03
41.65	1.895E+01	5.046E+03	1.206E+01	2.122E+00	-1.109E+00	7.669E-01	1.928E-01	1.185E+00	-4.387E-01	1.821E+02	-1.984E+02	7.151E+02	4.189E+03
41.70	1.915E+01	5.037E+03	1.206E+01	2.165E+00	-1.085E+00	8.209E-01	1.796E-01	1.161E+00	-4.553E-01	1.764E+02	-1.851E+02	7.235E+02	3.992E+03
41.75	1.925E+01	5.024E+03	1.206E+01	2.197E+00	-1.058E+00	8.804E-01	1.624E-01	1.186E+00	-4.922E-01	1.726E+02	-1.739E+02	7.311E+02	3.894E+03
41.80	1.926E+01	5.010E+03	1.206E+01	2.200E+00	-1.024E+00	9.337E-01	1.470E-01	1.242E+00	-5.423E-01	1.748E+02	-1.671E+02	7.389E+02	3.938E+03
41.85	1.974E+01	5.002E+03	1.206E+01	2.173E+00	-9.846E-01	9.708E-01	1.370E-01	1.311E+00	-6.010E-01	1.835E+02	-1.604E+02	7.488E+02	4.087E+03
41.90	1.975E+01	5.001E+03	1.206E+01	2.132E+00	-9.457E-01	9.850E-01	1.334E-01	1.384E+00	-6.655E-01	1.905E+02	-1.540E+02	7.563E+02	4.266E+03
41.95	1.969E+01	5.006E+03	1.206E+01	2.093E+00	-9.130E-01	9.780E-01	1.357E-01	1.454E+00	-7.326E-01	1.952E+02	-1.461E+02	7.621E+02	4.403E+03
42.00	1.973E+01	5.014E+03	1.207E+01	2.063E+00	-8.870E-01	9.592E-01	1.445E-01	1.519E+00	-7.971E-01	2.014E+02	-1.354E+02	7.684E+02	4.490E+03
42.05	1.937E+01	5.026E+03	1.210E+01	2.049E+00	-8.621E-01	9.311E-01	1.652E-01	1.577E+00	-8.499E-01	2.042E+02	-1.256E+02	7.744E+02	4.567E+03
42.10	1.904E+01	5.038E+03	1.211E+01	2.044E+00	-8.361E-01	9.002E-01	1.922E-01	1.623E+00	-8.893E-01	2.022E+02	-1.188E+02	7.783E+02	4.577E+03
42.15	1.938E+01	5.048E+03	1.212E+01	2.039E+00	-8.127E-01	8.862E-01	2.114E-01	1.657E+00	-9.205E-01	1.979E+02	-1.104E+02	7.815E+02	4.461E+03
42.20	1.943E+01	5.050E+03	1.211E+01	2.030E+00	-7.939E-01	9.083E-01	2.117E-01	1.677E+00	-9.482E-01	1.917E+02	-9.612E+01	7.847E+02	4.236E+03
42.25	1.941E+01	5.043E+03	1.212E+01	2.006E+00	-7.723E-01	9.755E-01	1.887E-01	1.689E+00	-9.732E-01	1.781E+02	-7.851E+01	7.866E+02	4.006E+03
42.30	1.951E+01	5.030E+03	1.212E+01	1.958E+00	-7.379E-01	1.080E+00	1.468E-01	1.703E+00	-9.944E-01	1.668E+02	-6.519E+01	7.872E+02	3.890E+03
42.35	1.926E+01	5.016E+03	1.212E+01	1.886E+00	-6.884E-01	1.210E+00	9.033E-02	1.725E+00	-1.014E+00	1.561E+02	-5.234E+01	7.867E+02	3.918E+03
42.40	1.930E+01	5.006E+03	1.211E+01	1.795E+00	-6.300E-01	1.352E+00	1.871E-02	1.755E+00	-1.036E+00	1.444E+02	-3.899E+01	7.848E+02	4.013E+03
42.45	2.001E+01	5.001E+03	1.210E+01	1.681E+00	-5.645E-01	1.493E+00	-6.831E-02	1.781E+00	-1.059E+00	1.422E+02	-2.664E+01	7.833E+02	4.118E+03
42.50	2.051E+01	5.001E+03	1.212E+01	1.542E+00	-4.843E-01	1.632E+00	-1.600E-01	1.798E+00	-1.076E+00	1.408E+02	-1.058E+01	7.833E+02	4.281E+03
42.55	2.038E+01	5.009E+03	1.214E+01	1.381E+00	-3.831E-01	1.770E+00	-2.470E-01	1.808E+00	-1.081E+00	1.435E+02	7.494E-01	7.822E+02	4.503E+03
42.60	2.003E+01	5.024E+03	1.215E+01	1.214E+00	-2.692E-01	1.895E+00	-3.291E-01	1.808E+00	-1.075E+00	1.460E+02	8.900E+00	7.807E+02	4.658E+03
42.65	2.023E+01	5.040E+03	1.216E+01	1.060E+00	-1.584E-01	2.000E+00	-4.089E-01	1.797E+00	-1.066E+00	1.495E+02	1.890E+01	7.791E+02	4.632E+03
42.70	2.040E+01	5.051E+03	1.217E+01	9.311E-01	-5.791E-02	2.082E+00	-4.814E-01	1.776E+00	-1.056E+00	1.496E+02	3.399E+01	7.756E+02	4.470E+03
42.75	1.946E+01	5.054E+03	1.218E+01	8.313E-01	3.006E-02	2.132E+00	-5.406E-01	1.750E+00	-1.041E+00	1.451E+02	4.673E+01	7.724E+02	4.261E+03
42.80	1.953E+01	5.049E+03	1.219E+01	7.552E-01	1.018E-01	2.149E+00	-5.862E-01	1.731E+00	-1.028E+00	1.400E+02	5.999E+01	7.721E+02	4.068E+03
42.85	2.018E+01	5.039E+03	1.219E+01	6.937E-01	1.574E-01	2.137E+00	-6.168E-01	1.729E+00	-1.021E+00	1.347E+02	7.226E+01	7.681E+02	3.952E+03
42.90	2.004E+01	5.026E+03	1.218E+01	6.355E-01	1.963E-01	2.100E+00	-6.373E-01	1.752E+00	-1.027E+00	1.373E+02	7.808E+01	7.645E+02	3.905E+03
42.95	1.971E+01	5.014E+03	1.217E+01	5.730E-01	2.201E-01	2.044E+00	-6.500E-01	1.782E+00	-1.037E+00	1.462E+02	7.976E+01	7.622E+02	3.930E+03
43.00	1.919E+01	5.006E+03	1.218E+01	5.089E-01	2.321E-01	1.976E+00	-6.520E-01	1.798E+00	-1.045E+00	1.543E+02	8.295E+01	7.557E+02	4.043E+03
43.05	1.931E+01	5.004E+03	1.219E+01	4.549E-01	2.355E-01	1.902E+00	-6.410E-01	1.801E+00	-1.047E+00	1.586E+02	8.530E+01	7.469E+02	4.239E+03
43.10	1.934E+01	5.011E+03	1.220E+01	4.304E-01	2.281E-01	1.824E+00	-6.192E-01	1.811E+00	-1.042E+00	1.655E+02	8.252E+01	7.401E+02	4.444E+03
43.15	1.904E+01	5.023E+03	1.220E+01	4.532E-01	2.062E-01	1.735E+00	-5.880E-01	1.839E+00	-1.040E+00	1.686E+02	8.273E+01	7.337E+02	4.558E+03
43.20	1.896E+01	5.036E+03	1.221E+01	5.315E-01	1.698E-01	1.627E+00	-5.497E-01	1.887E+00	-1.045E+00	1.571E+02	8.854E+01	7.206E+02	4.522E+03
43.25	1.885E+01	5.044E+03	1.221E+01	6.548E-01	1.231E-01	1.504E+00	-5.114E-01	1.952E+00	-1.056E+00	1.423E+02	1.002E+02	7.093E+02	4.344E+03
43.30	1.865E+01	5.043E+03	1.222E+01	7.983E-01	7.940E-02	1.388E+00	-4.789E-01	2.027E+00	-1.066E+00	1.359E+02	1.067E+02	6.995E+02	4.138E+03
43.35	1.807E+01	5.036E+03	1.223E+01	9.341E-01	5.076E-02	1.298E+00	-4.576E-01	2.098E+00	-1.070E+00	1.308E+02	1.133E+02	6.893E+02	3.998E+03
43.40	1.820E+01	5.026E+03	1.223E+01	1.048E+00	3.944E-02	1.240E+00	-4.528E-01	2.153E+00	-1.067E+00	1.316E+02	1.173E+02	6.765E+02	3.949E+03
43.45	1.855E+01	5.016E+03	1.222E+01	1.129E+00	4.132E-02	1.213E+00	-4.686E-01	2.191E+00	-1.059E+00	1.457E+02	1.182E+02	6.665E+02	3.957E+03
43.50	1.863E+01	5.009E+03	1.222E+01	1.180E+00	5.240E-02	1.209E+00	-5.034E-01	2.217E+00	-1.050E+00	1.679E+02	1.183E+02	6.588E+02	4.026E+03
43.55	1.916E+01	5.006E+03	1.222E+01	1.217E+00	6.848E-02	1.214E+00	-5.499E-01	2.237E+00	-1.039E+00	1.872E+02	1.161E+02	6.467E+02	4.162E+03
43.60	1.898E+01	5.009E+03	1.223E+01	1.258E+00	8.142E-02	1.211E+00	-5.994E-01	2.246E+00	-1.024E+00	1.981E+02	1.162E+02	6.352E+02	4.321E+03
43.65	1.883E+01	5.017E+03	1.224E+01	1.314E+00	8.187E-02	1.186E+00	-6.453E-01	2.234E+00	-9.990E-01	2.013E+02	1.192E+02	6.266E+02	4.430E+03
43.70	1.884E+01	5.027E+03	1.225E+01	1.392E+00	6.722E-02	1.144E+00	-6.850E-01	2.187E+00	-9.617E-01	1.954E+02	1.223E+02	6.151E+02	4.459E+03
43.75	1.875E+01	5.036E+03	1.227E+01	1.480E+00	4.245E-02	1.105E+00	-7.173E-01	2.108E+00	-9.085E-01	1.841E+02	1.255E+02	6.046E+02	4.435E+03
43.80	1.883E+01	5.043E+03	1.229E+01	1.560E+00	1.553E-02	1.085E+00	-7.409E-01	2.015E+00	-8.419E-01	1.714E+02	1.257E+02	5.965E+02	4.385E+03
43.85	1.878E+01	5.047E+03	1.230E+01	1.615E+00	-1.103E-02	1.086E+00	-7.603E-01	1.930E+00	-7.725E-01	1.645E+02	1.233E+02	5.892E+02	4.297E+03
43.90	1.901E+01	5.048E+03	1.231E+01	1.636E+00	-3.612E-02	1.104E+00	-7.793E-01	1.857E+00	-7.063E-01	1.586E+02	1.206E+02	5.804E+02	4.184E+03
43.95	1.922E+01	5.044E+03	1.231E+01	1.624E+00	-5.940E-02	1.137E+00	-8.003E-01	1.790E+00	-6.405E-01	1.592E+02	1.131E+02	5.724E+02	4.091E+03
44.00	1.981E+01	5.038E+03	1.232E+01	1.595E+00	-8.481E-02	1.190E+00	-8.255E-01	1.717E+00	-5.710E-01	1.698E+02	1.012E+02	5.670E+02	4.052E+03
44.05	2.037E+01	5.032E+03	1.232E+01	1.570E+00	-1.179E-01	1.256E+00	-8.544E-01	1.624E+00	-4.951E-01	1.778E+02	8.875E+01	5.615E+02	4.063E+03
44.10	2.003E+01	5.027E+03	1.232E+01	1.564E+00	-1.623E-01	1.329E+00	-8.871E-01	1.501E+00	-4.138E-01	1.907E+02	7.244E+01	5.528E+02	4.098E+03
44.15	1.998E+01	5.025E+03	1.233E+01	1.576E+00	-2.130E-01	1.393E+00	-9.151E-01	1.352E+00	-3.275E-01	1.958E+02	6.142E+01	5.451E+02	4.160E+03
44.20	2.014E+01	5.026E+03	1.233E+01	1.601E+00	-2.660E-01	1.427E+00	-9.328E-01	1.185E+00	-2.397E-01	1.969E+02	5.046E+01	5.352E+02	4.218E+03
44.25	2.012E+01	5.028E+03	1.234E+01	1.629E+00	-3.152E-01	1.436E+00	-9.417E-01	1.011E+00	-1.534E-01	1.966E+02	4.330E+01	5.256E+02	4.274E+03
44.30	2.002E+01	5.033E+03	1.236E+01	1.652E+00	-3.516E-01	1.438E+00	-9.446E-01	8.498E-01	-6.912E-02	1.907E+02	3.053E+01	5.144E+02	4.343E+03
44.35	1.988E+01	5.039E+03	1.236E+01	1.651E+00	-3.752E-01	1.441E+00	-9.469E-01	7.167E-01	5.313E-03	1.871E+02	2.077E+01	5.069E+02	4.342E+03
44.40	1.996E+01	5.043E+03	1.236E+01	1.620E+00	-3.860E-01	1.440E+00	-9.504E-01	6.220E-01	6.316E-02	1.848E+02	1.565E+01	5.022E+02	4.254E+03
44.45	2.014E+01	5.043E+03	1.236E+01	1.563E+00	-3.824E-01	1.440E+00	-9.559E-01	5.646E-01	1.062E-01	1.813E+02	5.295E+00	4.957E+02	4.134E+03
44.50	1.973E+01	5.038E+03	1.237E+01	1.486E+00	-3.680E-01	1.459E+00	-9.654E-01	5.335E-01	1.381E-01	1.850E+02	-4.493E+00	4.919E+02	4.032E+03
44.55	2.019E+01	5.031E+03	1.238E+01	1.399E+00	-3.462E-01	1.500E+00	-9.773E-01	5.200E-01	1.634E-01	1.869E+02	-1.301E+01	4.893E+02	3.996E+03
44.60	2.073E+01	5.025E+03	1.238E+01	1.320E+00	-3.257E-01	1.554E+00	-9.928E-01	5.185E-01	1.828E-01	1.850E+02	-2.278E+01	4.856E+02	4.019E+03
44.65	2.058E+01	5.020E+03	1.237E+01	1.261E+00	-3.170E-01	1.628E+00	-1.016E+00	5.230E-01	1.962E-01	1.799E+02	-3.165E+01	4.825E+02	4.058E+03
44.70	2.043E+01	5.017E+03	1.237E+01	1.229E+00	-3.263E-01	1.717E+00	-1.046E+00	5.322E-01	2.028E-01	1.758E+02	-3.661E+01	4.812E+02	4.086E+03
44.75	2.064E+01	5.016E+03	1.238E+01	1.213E+00	-3.467E-01	1.804E+00	-1.074E+00	5.519E-01	2.062E-01	1.698E+02	-4.397E+01	4.810E+02	4.144E+03
44.80	2.076E+01	5.018E+03	1.239E+01	1.197E+00	-3.691E-01	1.881E+00	-1.093E+00	5.884E-01	2.082E-01	1.651E+02	-5.335E+01	4.825E+02	4.241E+03
44.85	2.130E+01	5.024E+03	1.240E+01	1.173E+00	-3.900E-01	1.941E+00	-1.098E+00	6.519E-01	2.043E-01	1.597E+02	-6.304E+01	4.848E+02	4.326E+03
44.90	2.146E+01	5.031E+03	1.240E+01	1.138E+00	-4.099E-01	1.982E+00	-1.096E+00	7.464E-01	1.901E-01	1.578E+02	-7.569E+01	4.874E+02	4.341E+03
44.95	2.178E+01	5.037E+03	1.242E+01	1.097E+00	-4.297E-01	2.009E+00	-1.085E+00	8.486E-01	1.727E-01	1.588E+02	-8.687E+01	4.910E+02	4.301E+03
45.00	2.180E+01	5.041E+03	1.243E+01	1.067E+00	-4.509E-01	2.027E+00	-1.063E+00	9.303E-01	1.627E-01	1.582E+02	-9.930E+01	4.942E+02	4.254E+03
45.05	2.116E+01	5.042E+03	1.244E+01	1.046E+00	-4.756E-01	2.040E+00	-1.038E+00	9.764E-01	1.619E-01	1.569E+02	-1.116E+02	4.984E+02	4.193E+03
45.10	2.055E+01	5.042E+03	1.245E+01	1.029E+00	-5.041E-01	2.049E+00	-1.010E+00	9.907E-01	1.663E-01	1.534E+02	-1.220E+02	5.040E+02	4.129E+03
45.15	2.001E+01	5.039E+03	1.245E+01	1.016E+00	-5.356E-01	2.040E+00	-9.764E-01	9.921E-01	1.666E-01	1.483E+02	-1.296E+02	5.089E+02	4.072E+03
45.20	1.962E+01	5.035E+03	1.246E+01	1.004E+00	-5.679E-01	2.003E+00	-9.344E-01	1.001E+00	1.571E-01	1.459E+02	-1.385E+02	5.138E+02	4.044E+03
45.25	1.933E+01	5.031E+03	1.247E+01	9.956E-01	-5.981E-01	1.937E+00	-8.823E-01	1.019E+00	1.421E-01	1.508E+02	-1.518E+02	5.212E+02	4.084E+03
45.30	1.880E+01	5.030E+03	1.248E+01	9.930E-01	-6.251E-01	1.845E+00	-8.190E-01	1.035E+00	1.262E-01	1.494E+02	-1.627E+02	5.297E+02	4.169E+03
45.35	1.840E+01	5.032E+03	1.248E+01	9.938E-01	-6.511E-01	1.736E+00	-7.504E-01	1.040E+00	1.091E-01	1.520E+02	-1.736E+02	5.349E+02	4.228E+03
45.40	1.865E+01	5.036E+03	1.250E+01	9.850E-01	-6.733E-01	1.630E+00	-6.856E-01	1.036E+00	9.384E-02	1.598E+02	-1.854E+02	5.445E+02	4.257E+03
45.45	1.947E+01	5.040E+03	1.251E+01	9.663E-01	-6.890E-01	1.555E+00	-6.291E-01	1.025E+00	8.295E-02	1.721E+02	-1.988E+02	5.543E+02	4.276E+03
45.50	1.934E+01	5.045E+03	1.253E+01	9.487E-01	-7.011E-01	1.525E+00	-5.827E-01	1.017E+00	7.508E-02	1.817E+02	-2.111E+02	5.616E+02	4.287E+03
45.55	1.929E+01	5.049E+03	1.253E+01	9.487E-01	-7.194E-01	1.538E+00	-5.487E-01	1.021E+00	6.614E-02	1.879E+02	-2.215E+02	5.715E+02	4.253E+03
45.60	1.905E+01	5.050E+03	1.253E+01	9.922E-01	-7.576E-01	1.563E+00	-5.221E-01	1.047E+00	4.894E-02	1.969E+02	-2.320E+02	5.821E+02	4.142E+03
45.65	1.901E+01	5.047E+03	1.253E+01	1.087E+00	-8.168E-01	1.570E+00	-4.933E-01	1.093E+00	2.204E-02	1.988E+02	-2.369E+02	5.938E+02	4.003E+03
45.70	1.843E+01	5.039E+03	1.254E+01	1.214E+00	-8.848E-01	1.548E+00	-4.553E-01	1.139E+00	-5.867E-03	1.868E+02	-2.367E+02	6.034E+02	3.925E+03
45.75	1.873E+01	5.031E+03	1.254E+01	1.345E+00	-9.509E-01	1.497E+00	-4.078E-01	1.169E+00	-2.889E-02	1.753E+02	-2.383E+02	6.108E+02	3.932E+03
45.80	1.840E+01	5.025E+03	1.255E+01	1.452E+00	-1.008E+00	1.421E+00	-3.535E-01	1.177E+00	-4.667E-02	1.681E+02	-2.390E+02	6.225E+02	4.004E+03
45.85	1.882E+01	5.023E+03	1.255E+01	1.521E+00	-1.048E+00	1.325E+00	-2.914E-01	1.159E+00	-5.971E-02	1.614E+02	-2.392E+02	6.316E+02	4.110E+03
45.90	1.885E+01	5.025E+03	1.256E+01	1.549E+00	-1.069E+00	1.219E+00	-2.247E-01	1.118E+00	-6.919E-02	1.598E+02	-2.410E+02	6.407E+02	4.205E+03
45.95	1.875E+01	5.030E+03	1.256E+01	1.538E+00	-1.073E+00	1.106E+00	-1.563E-01	1.059E+00	-7.705E-02	1.668E+02	-2.413E+02	6.541E+02	4.254E+03
46.00	1.856E+01	5.036E+03	1.257E+01	1.502E+00	-1.059E+00	9.859E-01	-8.554E-02	9.916E-01	-8.500E-02	1.694E+02	-2.428E+02	6.651E+02	4.260E+03
46.05	1.848E+01	5.040E+03	1.257E+01	1.460E+00	-1.037E+00	8.537E-01	-1.525E-02	9.225E-01	-9.720E-02	1.701E+02	-2.434E+02	6.738E+02	4.195E+03
46.10	1.879E+01	5.040E+03	1.257E+01	1.432E+00	-1.016E+00	7.161E-01	5.091E-02	8.574E-01	-1.142E-01	1.734E+02	-2.424E+02	6.852E+02	4.081E+03
46.15	1.871E+01	5.036E+03	1.257E+01	1.423E+00	-9.981E-01	5.883E-01	1.110E-01	7.947E-01	-1.335E-01	1.693E+02	-2.386E+02	6.966E+02	3.960E+03
46.20	1.854E+01	5.028E+03	1.256E+01	1.426E+00	-9.840E-01	4.788E-01	1.635E-01	7.310E-01	-1.546E-01	1.700E+02	-2.377E+02	7.058E+02	3.849E+03
46.25	1.843E+01	5.018E+03	1.256E+01	1.434E+00	-9.727E-01	3.909E-01	2.112E-01	6.747E-01	-1.768E-01	1.733E+02	-2.332E+02	7.189E+02	3.797E+03
46.30	1.858E+01	5.008E+03	1.256E+01	1.454E+00	-9.642E-01	3.257E-01	2.550E-01	6.369E-01	-2.011E-01	1.739E+02	-2.270E+02	7.296E+02	3.829E+03
46.35	1.852E+01	5.001E+03	1.255E+01	1.492E+00	-9.606E-01	2.795E-01	2.960E-01	6.191E-01	-2.257E-01	1.763E+02	-2.254E+02	7.385E+02	3.936E+03
46.40	1.882E+01	5.000E+03	1.254E+01	1.546E+00	-9.668E-01	2.478E-01	3.316E-01	6.164E-01	-2.503E-01	1.818E+02	-2.236E+02	7.501E+02	4.051E+03
46.45	1.877E+01	5.001E+03	1.253E+01	1.606E+00	-9.821E-01	2.277E-01	3.569E-01	6.352E-01	-2.818E-01	1.843E+02	-2.181E+02	7.596E+02	4.102E+03
46.50	1.888E+01	5.004E+03	1.254E+01	1.654E+00	-9.938E-01	2.232E-01	3.760E-01	6.866E-01	-3.209E-01	1.836E+02	-2.110E+02	7.680E+02	4.138E+03
46.55	1.916E+01	5.008E+03	1.255E+01	1.678E+00	-9.942E-01	2.428E-01	3.916E-01	7.770E-01	-3.680E-01	1.853E+02	-2.069E+02	7.773E+02	4.172E+03
46.60	1.917E+01	5.012E+03	1.254E+01	1.683E+00	-9.857E-01	2.899E-01	3.980E-01	8.936E-01	-4.249E-01	1.866E+02	-2.004E+02	7.866E+02	4.145E+03
46.65	1.878E+01	5.013E+03	1.253E+01	1.673E+00	-9.713E-01	3.602E-01	3.888E-01	1.007E+00	-4.871E-01	1.851E+02	-1.951E+02	7.900E+02	4.026E+03
46.70	1.829E+01	5.009E+03	1.253E+01	1.646E+00	-9.522E-01	4.444E-01	3.682E-01	1.098E+00	-5.470E-01	1.860E+02	-1.840E+02	7.960E+02	3.895E+03
46.75	1.871E+01	5.002E+03	1.254E+01	1.608E+00	-9.242E-01	5.304E-01	3.447E-01	1.160E+00	-5.973E-01	1.861E+02	-1.698E+02	8.042E+02	3.858E+03
46.80	1.887E+01	4.997E+03	1.255E+01	1.571E+00	-8.843E-01	6.044E-01	3.229E-01	1.201E+00	-6.376E-01	1.778E+02	-1.615E+02	8.080E+02	3.935E+03
46.85	1.888E+01	4.996E+03	1.254E+01	1.532E+00	-8.354E-01	6.553E-01	3.049E-01	1.226E+00	-6.749E-01	1.685E+02	-1.512E+02	8.120E+02	4.051E+03
46.90	1.874E+01	4.998E+03	1.254E+01	1.482E+00	-7.791E-01	6.778E-01	2.896E-01	1.248E+00	-7.188E-01	1.595E+02	-1.322E+02	8.171E+02	4.121E+03
46.95	1.867E+01	5.002E+03	1.254E+01	1.419E+00	-7.124E-01	6.775E-01	2.756E-01	1.279E+00	-7.702E-01	1.536E+02	-1.116E+02	8.211E+02	4.153E+03
47.00	1.936E+01	5.007E+03	1.256E+01	1.355E+00	-6.357E-01	6.680E-01	2.615E-01	1.331E+00	-8.248E-01	1.477E+02	-9.783E+01	8.227E+02	4.189E+03
47.05	1.975E+01	5.012E+03	1.256E+01	1.303E+00	-5.604E-01	6.637E-01	2.455E-01	1.402E+00	-8.824E-01	1.468E+02	-8.472E+01	8.260E+02	4.208E+03
47.10	1.997E+01	5.017E+03	1.256E+01	1.277E+00	-5.001E-01	6.661E-01	2.214E-01	1.488E+00	-9.457E-01	1.424E+02	-6.681E+01	8.298E+02	4.143E+03
47.15	2.043E+01	5.017E+03	1.255E+01	1.283E+00	-4.580E-01	6.707E-01	1.902E-01	1.588E+00	-1.014E+00	1.359E+02	-5.116E+01	8.332E+02	4.010E+03
47.20	2.082E+01	5.012E+03	1.255E+01	1.307E+00	-4.282E-01	6.752E-01	1.601E-01	1.694E+00	-1.085E+00	1.258E+02	-3.367E+01	8.357E+02	3.876E+03
47.25	2.044E+01	5.004E+03	1.253E+01	1.331E+00	-4.038E-01	6.640E-01	1.359E-01	1.800E+00	-1.156E+00	1.130E+02	-1.448E+01	8.356E+02	3.764E+03
47.30	2.016E+01	4.992E+03	1.252E+01	1.319E+00	-3.722E-01	6.171E-01	1.245E-01	1.897E+00	-1.220E+00	1.101E+02	-2.032E+00	8.342E+02	3.718E+03
47.35	2.002E+01	4.982E+03	1.253E+01	1.252E+00	-3.240E-01	5.365E-01	1.325E-01	1.978E+00	-1.270E+00	1.140E+02	6.065E+00	8.319E+02	3.800E+03
47.40	2.005E+01	4.979E+03	1.253E+01	1.137E+00	-2.600E-01	4.419E-01	1.552E-01	2.035E+00	-1.297E+00	1.215E+02	1.337E+01	8.303E+02	3.996E+03
47.45	2.022E+01	4.983E+03	1.254E+01	9.884E-01	-1.845E-01	3.662E-01	1.807E-01	2.063E+00	-1.300E+00	1.282E+02	1.737E+01	8.290E+02	4.224E+03
47.50	1.971E+01	4.994E+03	1.253E+01	8.212E-01	-1.062E-01	3.267E-01	1.964E-01	2.057E+00	-1.287E+00	1.324E+02	2.203E+01	8.248E+02	4.345E+03
47.55	1.946E+01	5.005E+03	1.251E+01	6.530E-01	-3.464E-02	3.074E-01	1.966E-01	2.020E+00	-1.265E+00	1.322E+02	2.797E+01	8.178E+02	4.269E+03
47.60	1.894E+01	5.009E+03	1.250E+01	5.002E-01	2.592E-02	2.804E-01	1.852E-01	1.956E+00	-1.238E+00	1.233E+02	3.832E+01	8.109E+02	4.045E+03
47.65	2.005E+01	5.005E+03	1.251E+01	3.724E-01	7.936E-02	2.377E-01	1.697E-01	1.868E+00	-1.205E+00	1.079E+02	5.151E+01	8.021E+02	3.826E+03
47.70	2.049E+01	4.994E+03	1.250E+01	2.643E-01	1.325E-01	1.921E-01	1.496E-01	1.755E+00	-1.160E+00	8.816E+01	6.390E+01	7.924E+02	3.697E+03
47.75	2.065E+01	4.981E+03	1.248E+01	1.615E-01	1.876E-01	1.556E-01	1.190E-01	1.622E+00	-1.106E+00	7.643E+01	7.186E+01	7.847E+02	3.639E+03
47.80	2.097E+01	4.967E+03	1.244E+01	5.948E-02	2.421E-01	1.378E-01	7.328E-02	1.478E+00	-1.052E+00	6.969E+01	8.148E+01	7.769E+02	3.606E+03
47.85	2.049E+01	4.953E+03	1.242E+01	-3.610E-02	2.952E-01	1.473E-01	1.225E-02	1.336E+00	-1.002E+00	7.115E+01	9.373E+01	7.674E+02	3.623E+03
47.90	2.000E+01	4.943E+03	1.240E+01	-1.100E-01	3.478E-01	1.859E-01	-5.731E-02	1.208E+00	-9.523E-01	7.902E+01	9.892E+01	7.580E+02	3.745E+03
47.95	1.991E+01	4.940E+03	1.239E+01	-1.506E-01	3.955E-01	2.497E-01	-1.321E-01	1.103E+00	-9.040E-01	9.411E+01	1.004E+02	7.502E+02	3.928E+03
48.00	1.944E+01	4.943E+03	1.238E+01	-1.484E-01	4.329E-01	3.286E-01	-2.074E-01	1.027E+00	-8.613E-01	1.093E+02	1.040E+02	7.412E+02	4.097E+03
48.05	1.932E+01	4.951E+03	1.236E+01	-9.321E-02	4.529E-01	4.199E-01	-2.808E-01	9.823E-01	-8.253E-01	1.173E+02	1.100E+02	7.284E+02	4.174E+03
48.10	1.956E+01	4.959E+03	1.235E+01	1.585E-02	4.500E-01	5.256E-01	-3.519E-01	9.582E-01	-7.908E-01	1.271E+02	1.159E+02	7.184E+02	4.134E+03
48.15	1.966E+01	4.963E+03	1.234E+01	1.613E-01	4.288E-01	6.476E-01	-4.184E-01	9.470E-01	-7.541E-01	1.365E+02	1.198E+02	7.095E+02	4.021E+03
48.20	1.996E+01	4.962E+03	1.233E+01	3.172E-01	3.954E-01	7.882E-01	-4.833E-01	9.445E-01	-7.179E-01	1.384E+02	1.256E+02	6.978E+02	3.891E+03
48.25	1.998E+01	4.956E+03	1.232E+01	4.621E-01	3.531E-01	9.424E-01	-5.498E-01	9.518E-01	-6.847E-01	1.422E+02	1.272E+02	6.853E+02	3.793E+03
48.30	2.002E+01	4.949E+03	1.231E+01	5.834E-01	3.050E-01	1.098E+00	-6.171E-01	9.680E-01	-6.540E-01	1.485E+02	1.273E+02	6.768E+02	3.768E+03
48.35	2.020E+01	4.942E+03	1.230E+01	6.819E-01	2.537E-01	1.237E+00	-6.820E-01	9.798E-01	-6.240E-01	1.503E+02	1.251E+02	6.663E+02	3.821E+03
48.40	2.101E+01	4.939E+03	1.229E+01	7.636E-01	1.995E-01	1.352E+00	-7.433E-01	9.890E-01	-5.967E-01	1.507E+02	1.201E+02	6.519E+02	3.918E+03
48.45	2.171E+01	4.940E+03	1.228E+01	8.333E-01	1.442E-01	1.445E+00	-7.991E-01	9.931E-01	-5.676E-01	1.532E+02	1.187E+02	6.424E+02	4.040E+03
48.50	2.215E+01	4.946E+03	1.230E+01	8.996E-01	9.617E-02	1.518E+00	-8.445E-01	9.841E-01	-5.301E-01	1.515E+02	1.152E+02	6.310E+02	4.214E+03
48.55	2.180E+01	4.958E+03	1.231E+01	9.560E-01	6.066E-02	1.578E+00	-8.819E-01	9.635E-01	-4.858E-01	1.426E+02	1.113E+02	6.155E+02	4.370E+03
48.60	2.165E+01	4.973E+03	1.231E+01	9.815E-01	3.910E-02	1.631E+00	-9.196E-01	9.454E-01	-4.442E-01	1.390E+02	1.113E+02	6.048E+02	4.412E+03
48.65	2.193E+01	4.986E+03	1.231E+01	9.691E-01	3.516E-02	1.675E+00	-9.605E-01	9.427E-01	-4.122E-01	1.370E+02	1.118E+02	5.929E+02	4.337E+03
48.70	2.169E+01	4.994E+03	1.233E+01	9.186E-01	5.370E-02	1.709E+00	-1.000E+00	9.600E-01	-3.864E-01	1.346E+02	1.095E+02	5.805E+02	4.226E+03
48.75	2.154E+01	4.997E+03	1.233E+01	8.389E-01	9.077E-02	1.734E+00	-1.037E+00	9.953E-01	-3.646E-01	1.309E+02	1.052E+02	5.699E+02	4.105E+03
48.80	2.181E+01	4.996E+03	1.232E+01	7.408E-01	1.353E-01	1.756E+00	-1.075E+00	1.030E+00	-3.459E-01	1.341E+02	9.871E+01	5.608E+02	3.961E+03
48.85	2.202E+01	4.988E+03	1.231E+01	6.324E-01	1.800E-01	1.770E+00	-1.114E+00	1.044E+00	-3.271E-01	1.343E+02	9.386E+01	5.515E+02	3.825E+03
48.90	2.137E+01	4.978E+03	1.230E+01	5.216E-01	2.205E-01	1.764E+00	-1.147E+00	1.028E+00	-3.049E-01	1.263E+02	9.449E+01	5.419E+02	3.758E+03
48.95	2.099E+01	4.967E+03	1.230E+01	4.160E-01	2.529E-01	1.733E+00	-1.167E+00	9.732E-01	-2.729E-01	1.246E+02	8.826E+01	5.322E+02	3.801E+03
49.00	2.109E+01	4.962E+03	1.230E+01	3.213E-01	2.755E-01	1.685E+00	-1.172E+00	8.830E-01	-2.272E-01	1.271E+02	8.555E+01	5.274E+02	3.958E+03
49.05	2.110E+01	4.963E+03	1.230E+01	2.364E-01	2.926E-01	1.631E+00	-1.164E+00	7.794E-01	-1.716E-01	1.248E+02	7.810E+01	5.195E+02	4.183E+03
49.10	2.095E+01	4.973E+03	1.230E+01	1.577E-01	3.028E-01	1.580E+00	-1.147E+00	6.855E-01	-1.130E-01	1.286E+02	6.308E+01	5.115E+02	4.363E+03
49.15	2.068E+01	4.986E+03	1.230E+01	9.049E-02	2.990E-01	1.539E+00	-1.124E+00	6.067E-01	-5.504E-02	1.308E+02	5.246E+01	5.078E+02	4.405E+03
49.20	2.030E+01	4.997E+03	1.229E+01	4.882E-02	2.763E-01	1.511E+00	-1.101E+00	5.398E-01	-1.783E-04	1.318E+02	4.235E+01	5.040E+02	4.300E+03
49.25	2.064E+01	5.001E+03	1.229E+01	4.050E-02	2.357E-01	1.500E+00	-1.081E+00	4.845E-01	5.143E-02	1.268E+02	2.870E+01	4.979E+02	4.123E+03
49.30	2.097E+01	4.998E+03	1.228E+01	6.321E-02	1.767E-01	1.505E+00	-1.063E+00	4.381E-01	9.826E-02	1.241E+02	1.643E+01	4.933E+02	3.922E+03
49.35	2.074E+01	4.988E+03	1.226E+01	1.155E-01	9.991E-02	1.515E+00	-1.048E+00	3.911E-01	1.406E-01	1.212E+02	5.686E+00	4.892E+02	3.731E+03
49.40	2.069E+01	4.972E+03	1.224E+01	1.894E-01	1.239E-02	1.499E+00	-1.030E+00	3.385E-01	1.806E-01	1.145E+02	-4.611E+00	4.834E+02	3.604E+03
49.45	2.098E+01	4.955E+03	1.222E+01	2.679E-01	-7.457E-02	1.446E+00	-9.995E-01	2.821E-01	2.200E-01	1.099E+02	-1.420E+01	4.783E+02	3.596E+03
49.50	2.102E+01	4.942E+03	1.222E+01	3.395E-01	-1.474E-01	1.357E+00	-9.505E-01	2.400E-01	2.581E-01	1.087E+02	-2.240E+01	4.750E+02	3.773E+03
49.55	2.087E+01	4.939E+03	1.222E+01	4.065E-01	-2.013E-01	1.257E+00	-8.917E-01	2.416E-01	2.855E-01	1.044E+02	-3.668E+01	4.714E+02	4.072E+03
49.60	2.079E+01	4.947E+03	1.220E+01	4.767E-01	-2.470E-01	1.176E+00	-8.437E-01	2.996E-01	2.877E-01	1.076E+02	-4.993E+01	4.675E+02	4.310E+03
49.65	2.098E+01	4.961E+03	1.219E+01	5.528E-01	-2.898E-01	1.137E+00	-8.165E-01	4.063E-01	2.625E-01	1.069E+02	-5.785E+01	4.642E+02	4.391E+03
49.70	2.068E+01	4.973E+03	1.218E+01	6.345E-01	-3.316E-01	1.152E+00	-8.144E-01	5.415E-01	2.178E-01	1.124E+02	-6.299E+01	4.615E+02	4.315E+03
49.75	2.077E+01	4.980E+03	1.219E+01	7.224E-01	-3.678E-01	1.208E+00	-8.275E-01	6.871E-01	1.690E-01	1.148E+02	-7.169E+01	4.616E+02	4.184E+03
49.80	2.085E+01	4.981E+03	1.218E+01	8.104E-01	-3.975E-01	1.284E+00	-8.420E-01	8.190E-01	1.259E-01	1.152E+02	-7.972E+01	4.635E+02	4.038E+03
49.85	2.039E+01	4.976E+03	1.217E+01	8.893E-01	-4.235E-01	1.354E+00	-8.519E-01	9.141E-01	9.302E-02	1.173E+02	-8.428E+01	4.655E+02	3.892E+03
49.90	2.005E+01	4.967E+03	1.217E+01	9.611E-01	-4.490E-01	1.407E+00	-8.545E-01	9.683E-01	7.528E-02	1.201E+02	-9.202E+01	4.705E+02	3.825E+03
49.95	2.030E+01	4.959E+03	1.216E+01	1.029E+00	-4.771E-01	1.436E+00	-8.449E-01	9.871E-01	7.088E-02	1.235E+02	-1.041E+02	4.759E+02	3.871E+03
50.00	2.014E+01	4.954E+03	1.216E+01	1.093E+00	-5.135E-01	1.446E+00	-8.261E-01	9.812E-01	7.125E-02	1.239E+02	-1.112E+02	4.793E+02	3.983E+03
50.05	1.978E+01	4.955E+03	1.216E+01	1.155E+00	-5.615E-01	1.436E+00	-8.001E-01	9.677E-01	7.365E-02	1.305E+02	-1.216E+02	4.842E+02	4.138E+03
50.10	1.949E+01	4.961E+03	1.216E+01	1.212E+00	-6.187E-01	1.416E+00	-7.675E-01	9.548E-01	7.920E-02	1.359E+02	-1.368E+02	4.923E+02	4.293E+03
50.15	1.959E+01	4.972E+03	1.215E+01	1.260E+00	-6.825E-01	1.399E+00	-7.316E-01	9.385E-01	8.481E-02	1.397E+02	-1.486E+02	4.983E+02	4.356E+03
50.20	1.975E+01	4.981E+03	1.215E+01	1.288E+00	-7.454E-01	1.388E+00	-6.952E-01	9.119E-01	9.487E-02	1.393E+02	-1.612E+02	5.033E+02	4.317E+03
50.25	1.959E+01	4.987E+03	1.215E+01	1.293E+00	-8.034E-01	1.382E+00	-6.605E-01	8.673E-01	1.139E-01	1.385E+02	-1.747E+02	5.126E+02	4.202E+03
50.30	1.911E+01	4.988E+03	1.215E+01	1.287E+00	-8.561E-01	1.382E+00	-6.269E-01	7.940E-01	1.422E-01	1.354E+02	-1.846E+02	5.194E+02	4.056E+03
50.35	1.889E+01	4.983E+03	1.215E+01	1.284E+00	-9.032E-01	1.388E+00	-5.924E-01	6.884E-01	1.815E-01	1.268E+02	-1.940E+02	5.221E+02	3.954E+03
50.40	1.905E+01	4.976E+03	1.214E+01	1.285E+00	-9.462E-01	1.395E+00	-5.587E-01	5.650E-01	2.275E-01	1.307E+02	-2.094E+02	5.286E+02	3.907E+03
50.45	1.888E+01	4.968E+03	1.211E+01	1.292E+00	-9.853E-01	1.398E+00	-5.263E-01	4.324E-01	2.718E-01	1.265E+02	-2.151E+02	5.396E+02	3.882E+03
50.50	1.872E+01	4.960E+03	1.209E+01	1.310E+00	-1.020E+00	1.393E+00	-4.949E-01	3.029E-01	3.051E-01	1.292E+02	-2.212E+02	5.426E+02	3.870E+03
50.55	1.861E+01	4.954E+03	1.209E+01	1.332E+00	-1.041E+00	1.373E+00	-4.583E-01	2.050E-01	3.266E-01	1.336E+02	-2.253E+02	5.519E+02	3.947E+03
50.60	1.916E+01	4.952E+03	1.209E+01	1.354E+00	-1.047E+00	1.337E+00	-4.142E-01	1.521E-01	3.335E-01	1.419E+02	-2.328E+02	5.631E+02	4.103E+03
50.65	1.961E+01	4.956E+03	1.208E+01	1.387E+00	-1.045E+00	1.285E+00	-3.669E-01	1.462E-01	3.172E-01	1.424E+02	-2.362E+02	5.698E+02	4.227E+03
50.70	1.969E+01	4.963E+03	1.207E+01	1.439E+00	-1.045E+00	1.233E+00	-3.250E-01	1.932E-01	2.735E-01	1.432E+02	-2.337E+02	5.766E+02	4.267E+03
50.75	1.981E+01	4.970E+03	1.207E+01	1.488E+00	-1.043E+00	1.200E+00	-2.914E-01	2.861E-01	2.097E-01	1.436E+02	-2.308E+02	5.874E+02	4.250E+03
50.80	2.015E+01	4.974E+03	1.206E+01	1.519E+00	-1.033E+00	1.196E+00	-2.668E-01	4.082E-01	1.320E-01	1.424E+02	-2.282E+02	5.974E+02	4.180E+03
50.85	2.002E+01	4.975E+03	1.205E+01	1.523E+00	-1.017E+00	1.204E+00	-2.474E-01	5.500E-01	4.304E-02	1.368E+02	-2.224E+02	6.063E+02	4.071E+03
50.90	1.978E+01	4.971E+03	1.205E+01	1.503E+00	-9.948E-01	1.207E+00	-2.250E-01	6.960E-01	-4.786E-02	1.384E+02	-2.203E+02	6.168E+02	3.984E+03
50.95	2.032E+01	4.966E+03	1.205E+01	1.465E+00	-9.690E-01	1.195E+00	-1.950E-01	8.251E-01	-1.301E-01	1.378E+02	-2.156E+02	6.313E+02	3.971E+03
51.00	2.081E+01	4.961E+03	1.204E+01	1.414E+00	-9.407E-01	1.167E+00	-1.596E-01	9.287E-01	-2.028E-01	1.314E+02	-2.127E+02	6.402E+02	4.021E+03
51.05	2.142E+01	4.960E+03	1.204E+01	1.352E+00	-9.128E-01	1.130E+00	-1.207E-01	1.010E+00	-2.652E-01	1.303E+02	-2.126E+02	6.498E+02	4.125E+03
51.10	2.178E+01	4.964E+03	1.204E+01	1.285E+00	-8.875E-01	1.094E+00	-8.141E-02	1.072E+00	-3.178E-01	1.281E+02	-2.076E+02	6.650E+02	4.244E+03
51.15	2.181E+01	4.971E+03	1.205E+01	1.223E+00	-8.641E-01	1.073E+00	-4.704E-02	1.114E+00	-3.610E-01	1.308E+02	-2.094E+02	6.742E+02	4.336E+03
51.20	2.134E+01	4.980E+03	1.205E+01	1.178E+00	-8.461E-01	1.078E+00	-2.065E-02	1.123E+00	-3.892E-01	1.339E+02	-2.096E+02	6.845E+02	4.379E+03
51.25	2.079E+01	4.989E+03	1.206E+01	1.159E+00	-8.368E-01	1.103E+00	-2.516E-03	1.105E+00	-4.043E-01	1.418E+02	-2.052E+02	6.986E+02	4.360E+03
51.30	2.049E+01	4.995E+03	1.206E+01	1.175E+00	-8.346E-01	1.134E+00	9.423E-03	1.070E+00	-4.099E-01	1.379E+02	-2.006E+02	7.074E+02	4.295E+03
51.35	1.996E+01	4.998E+03	1.206E+01	1.230E+00	-8.440E-01	1.168E+00	1.280E-02	1.023E+00	-4.110E-01	1.316E+02	-1.953E+02	7.142E+02	4.188E+03
51.40	2.009E+01	4.996E+03	1.206E+01	1.307E+00	-8.634E-01	1.203E+00	8.675E-03	9.643E-01	-4.103E-01	1.347E+02	-1.872E+02	7.258E+02	4.073E+03
51.45	2.059E+01	4.990E+03	1.206E+01	1.383E+00	-8.788E-01	1.227E+00	2.560E-03	8.989E-01	-4.093E-01	1.372E+02	-1.803E+02	7.347E+02	4.006E+03
51.50	2.084E+01	4.984E+03	1.206E+01	1.445E+00	-8.828E-01	1.238E+00	-2.293E-03	8.384E-01	-4.115E-01	1.432E+02	-1.763E+02	7.407E+02	4.012E+03
51.55	2.148E+01	4.980E+03	1.206E+01	1.485E+00	-8.733E-01	1.235E+00	-1.384E-03	7.992E-01	-4.204E-01	1.515E+02	-1.683E+02	7.484E+02	4.106E+03
51.60	2.169E+01	4.981E+03	1.206E+01	1.511E+00	-8.533E-01	1.221E+00	5.365E-03	7.890E-01	-4.389E-01	1.642E+02	-1.644E+02	7.551E+02	4.241E+03
51.65	2.137E+01	4.987E+03	1.206E+01	1.539E+00	-8.320E-01	1.200E+00	1.281E-02	8.045E-01	-4.683E-01	1.752E+02	-1.598E+02	7.603E+02	4.343E+03
51.70	2.099E+01	4.995E+03	1.206E+01	1.592E+00	-8.210E-01	1.176E+00	1.779E-02	8.444E-01	-5.102E-01	1.753E+02	-1.503E+02	7.650E+02	4.366E+03
51.75	2.081E+01	5.001E+03	1.206E+01	1.670E+00	-8.231E-01	1.147E+00	2.227E-02	9.101E-01	-5.664E-01	1.744E+02	-1.361E+02	7.701E+02	4.313E+03
51.80	2.034E+01	5.004E+03	1.207E+01	1.764E+00	-8.301E-01	1.106E+00	3.421E-02	9.950E-01	-6.299E-01	1.709E+02	-1.203E+02	7.753E+02	4.254E+03
51.85	2.023E+01	5.006E+03	1.208E+01	1.863E+00	-8.341E-01	1.045E+00	5.818E-02	1.088E+00	-6.934E-01	1.664E+02	-1.114E+02	7.775E+02	4.211E+03
51.90	2.077E+01	5.005E+03	1.207E+01	1.943E+00	-8.326E-01	9.667E-01	8.951E-02	1.174E+00	-7.540E-01	1.637E+02	-9.881E+01	7.795E+02	4.147E+03
51.95	2.100E+01	5.002E+03	1.207E+01	1.987E+00	-8.214E-01	8.769E-01	1.238E-01	1.242E+00	-8.073E-01	1.613E+02	-8.451E+01	7.809E+02	4.082E+03
52.00	2.050E+01	4.997E+03	1.207E+01	1.989E+00	-7.970E-01	7.780E-01	1.607E-01	1.289E+00	-8.498E-01	1.567E+02	-7.161E+01	7.823E+02	4.063E+03
52.05	1.978E+01	4.993E+03	1.207E+01	1.949E+00	-7.590E-01	6.700E-01	1.980E-01	1.324E+00	-8.854E-01	1.566E+02	-6.041E+01	7.838E+02	4.099E+03
52.10	1.923E+01	4.991E+03	1.207E+01	1.874E+00	-7.083E-01	5.552E-01	2.342E-01	1.362E+00	-9.194E-01	1.574E+02	-5.040E+01	7.846E+02	4.181E+03
52.15	1.910E+01	4.993E+03	1.207E+01	1.778E+00	-6.495E-01	4.420E-01	2.646E-01	1.408E+00	-9.556E-01	1.528E+02	-3.996E+01	7.833E+02	4.252E+03
52.20	1.928E+01	4.996E+03	1.205E+01	1.669E+00	-5.879E-01	3.471E-01	2.787E-01	1.455E+00	-9.941E-01	1.535E+02	-3.126E+01	7.808E+02	4.243E+03
52.25	1.885E+01	4.998E+03	1.206E+01	1.558E+00	-5.243E-01	2.890E-01	2.751E-01	1.498E+00	-1.029E+00	1.503E+02	-1.821E+01	7.782E+02	4.203E+03
52.30	1.829E+01	4.998E+03	1.206E+01	1.461E+00	-4.601E-01	2.731E-01	2.580E-01	1.522E+00	-1.050E+00	1.425E+02	-7.458E+00	7.741E+02	4.179E+03
52.35	1.808E+01	4.997E+03	1.204E+01	1.377E+00	-4.004E-01	2.959E-01	2.230E-01	1.517E+00	-1.058E+00	1.326E+02	3.237E+00	7.703E+02	4.116E+03
52.40	1.821E+01	4.992E+03	1.203E+01	1.291E+00	-3.438E-01	3.488E-01	1.705E-01	1.491E+00	-1.061E+00	1.239E+02	1.836E+01	7.668E+02	4.017E+03
52.45	1.788E+01	4.985E+03	1.202E+01	1.192E+00	-2.818E-01	4.190E-01	1.098E-01	1.460E+00	-1.060E+00	1.207E+02	3.270E+01	7.626E+02	3.960E+03
52.50	1.838E+01	4.978E+03	1.203E+01	1.080E+00	-2.079E-01	4.967E-01	5.053E-02	1.444E+00	-1.054E+00	1.225E+02	3.963E+01	7.580E+02	4.006E+03
52.55	1.840E+01	4.974E+03	1.201E+01	9.639E-01	-1.287E-01	5.746E-01	-6.655E-03	1.449E+00	-1.050E+00	1.274E+02	4.331E+01	7.531E+02	4.085E+03
52.60	1.828E+01	4.972E+03	1.199E+01	8.553E-01	-5.495E-02	6.549E-01	-6.597E-02	1.475E+00	-1.052E+00	1.325E+02	4.998E+01	7.459E+02	4.122E+03
52.65	1.769E+01	4.971E+03	1.197E+01	7.647E-01	6.753E-03	7.474E-01	-1.318E-01	1.514E+00	-1.061E+00	1.306E+02	6.073E+01	7.376E+02	4.104E+03
52.70	1.804E+01	4.969E+03	1.196E+01	6.970E-01	5.439E-02	8.541E-01	-2.048E-01	1.556E+00	-1.069E+00	1.315E+02	7.033E+01	7.312E+02	4.063E+03
52.75	1.810E+01	4.966E+03	1.196E+01	6.557E-01	9.252E-02	9.677E-01	-2.766E-01	1.594E+00	-1.073E+00	1.287E+02	7.957E+01	7.243E+02	4.075E+03
52.80	1.810E+01	4.965E+03	1.196E+01	6.379E-01	1.245E-01	1.080E+00	-3.430E-01	1.631E+00	-1.072E+00	1.229E+02	8.663E+01	7.145E+02	4.133E+03
52.85	1.805E+01	4.965E+03	1.194E+01	6.355E-01	1.487E-01	1.185E+00	-4.065E-01	1.668E+00	-1.067E+00	1.194E+02	9.266E+01	7.074E+02	4.159E+03
52.90	1.822E+01	4.966E+03	1.193E+01	6.459E-01	1.639E-01	1.270E+00	-4.656E-01	1.707E+00	-1.064E+00	1.199E+02	9.967E+01	7.005E+02	4.128E+03
52.95	1.895E+01	4.964E+03	1.192E+01	6.686E-01	1.734E-01	1.327E+00	-5.145E-01	1.758E+00	-1.065E+00	1.234E+02	1.059E+02	6.908E+02	4.099E+03
53.00	1.903E+01	4.963E+03	1.193E+01	7.065E-01	1.798E-01	1.352E+00	-5.490E-01	1.814E+00	-1.063E+00	1.332E+02	1.069E+02	6.826E+02	4.139E+03
53.05	1.847E+01	4.965E+03	1.193E+01	7.653E-01	1.803E-01	1.358E+00	-5.732E-01	1.863E+00	-1.053E+00	1.436E+02	1.072E+02	6.764E+02	4.231E+03
53.10	1.828E+01	4.969E+03	1.193E+01	8.449E-01	1.705E-01	1.349E+00	-5.929E-01	1.908E+00	-1.043E+00	1.526E+02	1.079E+02	6.659E+02	4.301E+03
53.15	1.817E+01	4.975E+03	1.192E+01	9.406E-01	1.478E-01	1.332E+00	-6.121E-01	1.964E+00	-1.043E+00	1.586E+02	1.126E+02	6.549E+02	4.300E+03
53.20	1.830E+01	4.979E+03	1.192E+01	1.052E+00	1.126E-01	1.312E+00	-6.304E-01	2.031E+00	-1.049E+00	1.659E+02	1.181E+02	6.475E+02	4.253E+03
53.25	1.782E+01	4.981E+03	1.194E+01	1.177E+00	7.329E-02	1.283E+00	-6.413E-01	2.104E+00	-1.057E+00	1.698E+02	1.207E+02	6.358E+02	4.242E+03
53.30	1.803E+01	4.984E+03	1.194E+01	1.296E+00	3.709E-02	1.239E+00	-6.414E-01	2.184E+00	-1.064E+00	1.695E+02	1.183E+02	6.233E+02	4.278E+03
53.35	1.786E+01	4.988E+03	1.194E+01	1.396E+00	6.930E-04	1.180E+00	-6.377E-01	2.265E+00	-1.072E+00	1.706E+02	1.192E+02	6.153E+02	4.286E+03
53.40	1.788E+01	4.991E+03	1.194E+01	1.479E+00	-3.540E-02	1.118E+00	-6.365E-01	2.340E+00	-1.083E+00	1.692E+02	1.211E+02	6.037E+02	4.268E+03
53.45	1.787E+01	4.993E+03	1.195E+01	1.550E+00	-6.912E-02	1.074E+00	-6.400E-01	2.409E+00	-1.090E+00	1.627E+02	1.214E+02	5.910E+02	4.271E+03
53.50	1.833E+01	4.996E+03	1.196E+01	1.615E+00	-1.023E-01	1.061E+00	-6.508E-01	2.466E+00	-1.089E+00	1.619E+02	1.229E+02	5.838E+02	4.297E+03
53.55	1.825E+01	5.000E+03	1.197E+01	1.666E+00	-1.295E-01	1.081E+00	-6.700E-01	2.505E+00	-1.078E+00	1.604E+02	1.203E+02	5.733E+02	4.334E+03
53.60	1.810E+01	5.004E+03	1.198E+01	1.687E+00	-1.465E-01	1.128E+00	-6.987E-01	2.523E+00	-1.057E+00	1.638E+02	1.145E+02	5.614E+02	4.355E+03
53.65	1.815E+01	5.009E+03	1.199E+01	1.671E+00	-1.532E-01	1.191E+00	-7.344E-01	2.519E+00	-1.024E+00	1.722E+02	1.102E+02	5.546E+02	4.353E+03
53.70	1.778E+01	5.013E+03	1.200E+01	1.631E+00	-1.512E-01	1.252E+00	-7.724E-01	2.487E+00	-9.776E-01	1.782E+02	1.058E+02	5.458E+02	4.354E+03
53.75	1.794E+01	5.017E+03	1.202E+01	1.581E+00	-1.433E-01	1.300E+00	-8.068E-01	2.419E+00	-9.120E-01	1.825E+02	9.474E+01	5.339E+02	4.380E+03
53.80	1.812E+01	5.023E+03	1.203E+01	1.527E+00	-1.356E-01	1.338E+00	-8.365E-01	2.300E+00	-8.244E-01	1.881E+02	8.841E+01	5.290E+02	4.400E+03
53.85	1.838E+01	5.028E+03	1.204E+01	1.480E+00	-1.325E-01	1.362E+00	-8.620E-01	2.139E+00	-7.226E-01	1.914E+02	8.002E+01	5.215E+02	4.396E+03
53.90	1.859E+01	5.032E+03	1.205E+01	1.461E+00	-1.416E-01	1.379E+00	-8.864E-01	1.975E+00	-6.233E-01	1.810E+02	7.480E+01	5.121E+02	4.358E+03
53.95	1.844E+01	5.033E+03	1.205E+01	1.473E+00	-1.695E-01	1.397E+00	-9.147E-01	1.835E+00	-5.411E-01	1.720E+02	6.935E+01	5.035E+02	4.265E+03
54.00	1.860E+01	5.030E+03	1.205E+01	1.502E+00	-2.119E-01	1.412E+00	-9.471E-01	1.721E+00	-4.768E-01	1.640E+02	6.376E+01	4.966E+02	4.147E+03
54.05	1.835E+01	5.023E+03	1.205E+01	1.522E+00	-2.554E-01	1.415E+00	-9.785E-01	1.619E+00	-4.219E-01	1.512E+02	5.773E+01	4.888E+02	4.064E+03
54.10	1.798E+01	5.015E+03	1.205E+01	1.505E+00	-2.878E-01	1.396E+00	-9.999E-01	1.516E+00	-3.671E-01	1.450E+02	4.954E+01	4.827E+02	4.050E+03
54.15	1.751E+01	5.009E+03	1.206E+01	1.448E+00	-3.023E-01	1.365E+00	-1.006E+00	1.401E+00	-3.041E-01	1.507E+02	4.018E+01	4.799E+02	4.124E+03
54.20	1.809E+01	5.008E+03	1.207E+01	1.365E+00	-2.981E-01	1.337E+00	-9.977E-01	1.274E+00	-2.301E-01	1.617E+02	2.775E+01	4.765E+02	4.281E+03
54.25	1.832E+01	5.013E+03	1.208E+01	1.292E+00	-2.856E-01	1.322E+00	-9.804E-01	1.147E+00	-1.490E-01	1.729E+02	7.881E+00	4.702E+02	4.455E+03
54.30	1.796E+01	5.024E+03	1.207E+01	1.256E+00	-2.854E-01	1.335E+00	-9.648E-01	1.030E+00	-7.209E-02	1.808E+02	-8.178E+00	4.647E+02	4.516E+03
54.35	1.851E+01	5.032E+03	1.207E+01	1.277E+00	-3.119E-01	1.377E+00	-9.613E-01	9.324E-01	-8.535E-03	1.830E+02	-1.471E+01	4.610E+02	4.421E+03
54.40	1.894E+01	5.035E+03	1.207E+01	1.354E+00	-3.643E-01	1.434E+00	-9.678E-01	8.635E-01	4.085E-02	1.754E+02	-2.521E+01	4.564E+02	4.246E+03
54.45	1.882E+01	5.030E+03	1.207E+01	1.462E+00	-4.344E-01	1.499E+00	-9.784E-01	8.221E-01	7.604E-02	1.659E+02	-2.918E+01	4.553E+02	4.055E+03
54.50	1.865E+01	5.019E+03	1.207E+01	1.574E+00	-5.078E-01	1.565E+00	-9.882E-01	7.995E-01	1.034E-01	1.614E+02	-3.420E+01	4.554E+02	3.941E+03
54.55	1.837E+01	5.008E+03	1.207E+01	1.667E+00	-5.713E-01	1.623E+00	-9.950E-01	7.913E-01	1.283E-01	1.636E+02	-4.911E+01	4.546E+02	3.949E+03
54.60	1.845E+01	4.999E+03	1.206E+01	1.718E+00	-6.199E-01	1.671E+00	-9.982E-01	7.904E-01	1.508E-01	1.722E+02	-6.667E+01	4.543E+02	4.037E+03
54.65	1.879E+01	4.995E+03	1.206E+01	1.725E+00	-6.569E-01	1.700E+00	-9.967E-01	7.911E-01	1.708E-01	1.868E+02	-8.133E+01	4.543E+02	4.171E+03
54.70	1.951E+01	4.998E+03	1.208E+01	1.716E+00	-6.894E-01	1.719E+00	-9.918E-01	7.949E-01	1.906E-01	1.977E+02	-9.837E+01	4.552E+02	4.346E+03
54.75	1.972E+01	5.007E+03	1.208E+01	1.722E+00	-7.290E-01	1.741E+00	-9.867E-01	8.000E-01	2.080E-01	2.030E+02	-1.113E+02	4.568E+02	4.495E+03
54.80	1.955E+01	5.019E+03	1.209E+01	1.759E+00	-7.799E-01	1.782E+00	-9.884E-01	8.045E-01	2.200E-01	1.982E+02	-1.200E+02	4.584E+02	4.543E+03
54.85	1.940E+01	5.029E+03	1.209E+01	1.816E+00	-8.365E-01	1.844E+00	-9.995E-01	8.069E-01	2.252E-01	1.848E+02	-1.233E+02	4.599E+02	4.456E+03
54.90	1.950E+01	5.034E+03	1.210E+01	1.868E+00	-8.856E-01	1.917E+00	-1.012E+00	8.095E-01	2.259E-01	1.687E+02	-1.276E+02	4.613E+02	4.291E+03
54.95	1.906E+01	5.032E+03	1.210E+01	1.890E+00	-9.150E-01	1.979E+00	-1.015E+00	8.137E-01	2.247E-01	1.506E+02	-1.298E+02	4.642E+02	4.130E+03
55.00	1.930E+01	5.025E+03	1.212E+01	1.872E+00	-9.236E-01	2.025E+00	-1.006E+00	8.135E-01	2.252E-01	1.428E+02	-1.345E+02	4.694E+02	4.043E+03
55.05	2.016E+01	5.018E+03	1.213E+01	1.833E+00	-9.196E-01	2.060E+00	-9.865E-01	8.066E-01	2.294E-01	1.486E+02	-1.453E+02	4.779E+02	4.072E+03
55.10	2.049E+01	5.014E+03	1.213E+01	1.800E+00	-9.156E-01	2.093E+00	-9.624E-01	7.904E-01	2.365E-01	1.652E+02	-1.594E+02	4.882E+02	4.186E+03
55.15	2.067E+01	5.015E+03	1.213E+01	1.791E+00	-9.213E-01	2.141E+00	-9.447E-01	7.603E-01	2.435E-01	1.760E+02	-1.701E+02	4.986E+02	4.302E+03
55.20	2.063E+01	5.019E+03	1.213E+01	1.816E+00	-9.429E-01	2.211E+00	-9.411E-01	7.101E-01	2.488E-01	1.785E+02	-1.772E+02	5.042E+02	4.347E+03
55.25	2.003E+01	5.024E+03	1.213E+01	1.862E+00	-9.785E-01	2.281E+00	-9.474E-01	6.417E-01	2.546E-01	1.784E+02	-1.839E+02	5.112E+02	4.313E+03
55.30	2.031E+01	5.026E+03	1.214E+01	1.908E+00	-1.018E+00	2.326E+00	-9.470E-01	5.596E-01	2.653E-01	1.748E+02	-1.903E+02	5.197E+02	4.267E+03
55.35	2.071E+01	5.027E+03	1.216E+01	1.937E+00	-1.051E+00	2.322E+00	-9.245E-01	4.770E-01	2.801E-01	1.684E+02	-1.956E+02	5.262E+02	4.258E+03
55.40	2.064E+01	5.028E+03	1.217E+01	1.940E+00	-1.075E+00	2.263E+00	-8.763E-01	4.121E-01	2.949E-01	1.617E+02	-2.001E+02	5.359E+02	4.279E+03
55.45	2.106E+01	5.030E+03	1.217E+01	1.910E+00	-1.090E+00	2.156E+00	-8.086E-01	3.750E-01	3.028E-01	1.642E+02	-2.070E+02	5.481E+02	4.281E+03
55.50	2.033E+01	5.031E+03	1.218E+01	1.851E+00	-1.095E+00	2.016E+00	-7.291E-01	3.653E-01	3.005E-01	1.685E+02	-2.110E+02	5.597E+02	4.255E+03
55.55	2.072E+01	5.031E+03	1.220E+01	1.776E+00	-1.088E+00	1.862E+00	-6.410E-01	3.873E-01	2.896E-01	1.764E+02	-2.215E+02	5.687E+02	4.262E+03
55.60	2.109E+01	5.033E+03	1.221E+01	1.701E+00	-1.074E+00	1.714E+00	-5.515E-01	4.467E-01	2.674E-01	1.729E+02	-2.267E+02	5.800E+02	4.298E+03
55.65	2.110E+01	5.036E+03	1.221E+01	1.644E+00	-1.064E+00	1.582E+00	-4.678E-01	5.373E-01	2.276E-01	1.703E+02	-2.339E+02	5.876E+02	4.304E+03
55.70	2.113E+01	5.037E+03	1.220E+01	1.613E+00	-1.067E+00	1.476E+00	-3.965E-01	6.526E-01	1.661E-01	1.603E+02	-2.343E+02	5.977E+02	4.235E+03
55.75	2.067E+01	5.035E+03	1.220E+01	1.617E+00	-1.086E+00	1.392E+00	-3.368E-01	7.886E-01	8.254E-02	1.538E+02	-2.314E+02	6.082E+02	4.125E+03
55.80	2.049E+01	5.029E+03	1.222E+01	1.642E+00	-1.105E+00	1.321E+00	-2.790E-01	9.432E-01	-1.472E-02	1.467E+02	-2.273E+02	6.189E+02	4.082E+03
55.85	2.097E+01	5.025E+03	1.223E+01	1.667E+00	-1.112E+00	1.258E+00	-2.169E-01	1.114E+00	-1.173E-01	1.413E+02	-2.265E+02	6.294E+02	4.154E+03
55.90	2.136E+01	5.025E+03	1.224E+01	1.679E+00	-1.105E+00	1.202E+00	-1.556E-01	1.299E+00	-2.252E-01	1.467E+02	-2.287E+02	6.410E+02	4.259E+03
55.95	2.173E+01	5.028E+03	1.225E+01	1.677E+00	-1.088E+00	1.152E+00	-9.782E-02	1.490E+00	-3.370E-01	1.604E+02	-2.319E+02	6.536E+02	4.340E+03
56.00	2.179E+01	5.034E+03	1.226E+01	1.671E+00	-1.066E+00	1.100E+00	-4.045E-02	1.676E+00	-4.493E-01	1.697E+02	-2.303E+02	6.669E+02	4.384E+03
56.05	2.146E+01	5.041E+03	1.228E+01	1.676E+00	-1.043E+00	1.051E+00	1.711E-02	1.852E+00	-5.589E-01	1.799E+02	-2.304E+02	6.762E+02	4.410E+03
56.10	2.184E+01	5.048E+03	1.230E+01	1.692E+00	-1.022E+00	1.010E+00	7.367E-02	2.010E+00	-6.594E-01	1.848E+02	-2.279E+02	6.879E+02	4.426E+03
56.15	2.210E+01	5.054E+03	1.231E+01	1.724E+00	-1.010E+00	9.758E-01	1.242E-01	2.139E+00	-7.502E-01	1.867E+02	-2.219E+02	6.992E+02	4.385E+03
56.20	2.276E+01	5.057E+03	1.232E+01	1.762E+00	-1.005E+00	9.335E-01	1.702E-01	2.231E+00	-8.275E-01	1.837E+02	-2.145E+02	7.089E+02	4.288E+03
56.25	2.304E+01	5.056E+03	1.233E+01	1.792E+00	-1.001E+00	8.645E-01	2.179E-01	2.284E+00	-8.862E-01	1.806E+02	-2.058E+02	7.200E+02	4.192E+03
56.30	2.315E+01	5.053E+03	1.235E+01	1.813E+00	-9.988E-01	7.628E-01	2.712E-01	2.306E+00	-9.249E-01	1.846E+02	-2.036E+02	7.335E+02	4.153E+03
56.35	2.273E+01	5.050E+03	1.236E+01	1.833E+00	-9.998E-01	6.345E-01	3.261E-01	2.302E+00	-9.474E-01	1.863E+02	-2.016E+02	7.466E+02	4.163E+03
56.40	2.250E+01	5.047E+03	1.236E+01	1.862E+00	-1.011E+00	4.938E-01	3.756E-01	2.274E+00	-9.584E-01	1.898E+02	-1.997E+02	7.579E+02	4.183E+03
56.45	2.284E+01	5.046E+03	1.237E+01	1.908E+00	-1.035E+00	3.534E-01	4.183E-01	2.224E+00	-9.614E-01	1.965E+02	-1.973E+02	7.692E+02	4.205E+03
56.50	2.262E+01	5.046E+03	1.237E+01	1.977E+00	-1.068E+00	2.180E-01	4.560E-01	2.154E+00	-9.556E-01	1.983E+02	-1.910E+02	7.787E+02	4.222E+03
56.55	2.281E+01	5.046E+03	1.238E+01	2.055E+00	-1.102E+00	8.187E-02	4.919E-01	2.067E+00	-9.421E-01	2.000E+02	-1.883E+02	7.837E+02	4.217E+03
56.60	2.246E+01	5.046E+03	1.239E+01	2.127E+00	-1.129E+00	-5.323E-02	5.297E-01	1.970E+00	-9.219E-01	1.983E+02	-1.781E+02	7.901E+02	4.208E+03
56.65	2.265E+01	5.046E+03	1.240E+01	2.188E+00	-1.142E+00	-1.803E-01	5.713E-01	1.874E+00	-8.963E-01	2.073E+02	-1.723E+02	7.966E+02	4.221E+03
56.70	2.278E+01	5.047E+03	1.242E+01	2.237E+00	-1.139E+00	-2.795E-01	6.101E-01	1.790E+00	-8.702E-01	2.097E+02	-1.638E+02	8.014E+02	4.252E+03
56.75	2.255E+01	5.049E+03	1.242E+01	2.270E+00	-1.120E+00	-3.378E-01	6.395E-01	1.728E+00	-8.532E-01	2.122E+02	-1.563E+02	8.046E+02	4.260E+03
56.80	2.258E+01	5.050E+03	1.242E+01	2.278E+00	-1.089E+00	-3.579E-01	6.555E-01	1.690E+00	-8.548E-01	2.165E+02	-1.452E+02	8.078E+02	4.199E+03
56.85	2.262E+01	5.047E+03	1.241E+01	2.255E+00	-1.045E+00	-3.584E-01	6.594E-01	1.679E+00	-8.784E-01	2.170E+02	-1.307E+02	8.091E+02	4.080E+03
56.90	2.319E+01	5.041E+03	1.242E+01	2.190E+00	-9.818E-01	-3.547E-01	6.592E-01	1.688E+00	-9.182E-01	2.132E+02	-1.155E+02	8.101E+02	3.991E+03
56.95	2.314E+01	5.033E+03	1.243E+01	2.064E+00	-8.913E-01	-3.460E-01	6.567E-01	1.708E+00	-9.662E-01	2.060E+02	-9.740E+01	8.116E+02	3.981E+03
57.00	2.314E+01	5.028E+03	1.243E+01	1.899E+00	-7.814E-01	-3.144E-01	6.455E-01	1.731E+00	-1.015E+00	2.029E+02	-8.559E+01	8.127E+02	4.053E+03
57.05	2.330E+01	5.026E+03	1.243E+01	1.739E+00	-6.727E-01	-2.399E-01	6.141E-01	1.752E+00	-1.064E+00	1.920E+02	-7.225E+01	8.135E+02	4.132E+03
57.10	2.331E+01	5.026E+03	1.242E+01	1.605E+00	-5.800E-01	-1.155E-01	5.550E-01	1.768E+00	-1.115E+00	1.802E+02	-5.298E+01	8.143E+02	4.156E+03
57.15	2.324E+01	5.026E+03	1.242E+01	1.501E+00	-5.022E-01	3.998E-02	4.735E-01	1.774E+00	-1.160E+00	1.656E+02	-3.291E+01	8.147E+02	4.150E+03
57.20	2.301E+01	5.026E+03	1.244E+01	1.424E+00	-4.331E-01	2.106E-01	3.797E-01	1.768E+00	-1.190E+00	1.542E+02	-1.550E+01	8.157E+02	4.178E+03
57.25	2.294E+01	5.029E+03	1.246E+01	1.370E+00	-3.673E-01	3.986E-01	2.792E-01	1.754E+00	-1.201E+00	1.455E+02	-1.124E+00	8.164E+02	4.265E+03
57.30	2.312E+01	5.035E+03	1.247E+01	1.323E+00	-3.027E-01	6.058E-01	1.697E-01	1.726E+00	-1.190E+00	1.436E+02	9.824E+00	8.160E+02	4.321E+03
57.35	2.285E+01	5.041E+03	1.247E+01	1.267E+00	-2.408E-01	8.181E-01	5.248E-02	1.689E+00	-1.166E+00	1.502E+02	1.936E+01	8.158E+02	4.284E+03
57.40	2.271E+01	5.043E+03	1.248E+01	1.202E+00	-1.815E-01	1.014E+00	-6.241E-02	1.655E+00	-1.132E+00	1.595E+02	3.088E+01	8.153E+02	4.190E+03
57.45	2.283E+01	5.043E+03	1.250E+01	1.142E+00	-1.269E-01	1.180E+00	-1.653E-01	1.635E+00	-1.095E+00	1.709E+02	4.030E+01	8.130E+02	4.129E+03
57.50	2.253E+01	5.042E+03	1.252E+01	1.104E+00	-7.960E-02	1.311E+00	-2.528E-01	1.630E+00	-1.055E+00	1.775E+02	4.711E+01	8.102E+02	4.149E+03
57.55	2.200E+01	5.042E+03	1.253E+01	1.086E+00	-4.291E-02	1.413E+00	-3.301E-01	1.630E+00	-1.015E+00	1.808E+02	5.218E+01	8.054E+02	4.197E+03
57.60	2.155E+01	5.044E+03	1.252E+01	1.077E+00	-1.880E-02	1.500E+00	-4.075E-01	1.623E+00	-9.826E-01	1.769E+02	5.923E+01	7.972E+02	4.186E+03
57.65	2.176E+01	5.043E+03	1.252E+01	1.062E+00	-4.252E-03	1.587E+00	-4.896E-01	1.604E+00	-9.570E-01	1.692E+02	7.018E+01	7.889E+02	4.118E+03
57.70	2.224E+01	5.041E+03	1.254E+01	1.029E+00	1.089E-02	1.675E+00	-5.683E-01	1.563E+00	-9.302E-01	1.597E+02	8.076E+01	7.819E+02	4.081E+03
57.75	2.214E+01	5.039E+03	1.256E+01	9.666E-01	3.717E-02	1.757E+00	-6.354E-01	1.507E+00	-9.018E-01	1.473E+02	9.108E+01	7.737E+02	4.121E+03
57.80	2.246E+01	5.040E+03	1.258E+01	8.586E-01	8.353E-02	1.837E+00	-6.921E-01	1.468E+00	-8.827E-01	1.399E+02	9.896E+01	7.660E+02	4.219E+03
57.85	2.248E+01	5.045E+03	1.259E+01	7.003E-01	1.536E-01	1.908E+00	-7.393E-01	1.478E+00	-8.846E-01	1.317E+02	1.068E+02	7.580E+02	4.316E+03
57.90	2.232E+01	5.052E+03	1.260E+01	5.013E-01	2.428E-01	1.963E+00	-7.802E-01	1.539E+00	-9.112E-01	1.278E+02	1.112E+02	7.471E+02	4.340E+03
57.95	2.218E+01	5.057E+03	1.261E+01	2.753E-01	3.452E-01	2.008E+00	-8.188E-01	1.624E+00	-9.502E-01	1.268E+02	1.166E+02	7.369E+02	4.283E+03
58.00	2.251E+01	5.060E+03	1.263E+01	4.116E-02	4.557E-01	2.044E+00	-8.532E-01	1.703E+00	-9.874E-01	1.186E+02	1.234E+02	7.256E+02	4.199E+03
58.05	2.253E+01	5.060E+03	1.264E+01	-1.863E-01	5.670E-01	2.072E+00	-8.846E-01	1.758E+00	-1.014E+00	1.130E+02	1.273E+02	7.134E+02	4.116E+03
58.10	2.272E+01	5.057E+03	1.265E+01	-3.999E-01	6.743E-01	2.092E+00	-9.132E-01	1.780E+00	-1.024E+00	1.033E+02	1.350E+02	7.051E+02	4.054E+03
58.15	2.223E+01	5.052E+03	1.266E+01	-5.866E-01	7.722E-01	2.093E+00	-9.379E-01	1.763E+00	-1.013E+00	9.505E+01	1.409E+02	6.943E+02	4.023E+03
58.20	2.212E+01	5.048E+03	1.266E+01	-7.393E-01	8.569E-01	2.077E+00	-9.599E-01	1.716E+00	-9.837E-01	8.698E+01	1.462E+02	6.844E+02	4.030E+03
58.25	2.220E+01	5.044E+03	1.266E+01	-8.573E-01	9.243E-01	2.052E+00	-9.856E-01	1.657E+00	-9.415E-01	7.832E+01	1.512E+02	6.763E+02	4.046E+03
58.30	2.246E+01	5.042E+03	1.266E+01	-9.313E-01	9.676E-01	2.035E+00	-1.022E+00	1.599E+00	-8.942E-01	7.880E+01	1.515E+02	6.666E+02	4.055E+03
58.35	2.286E+01	5.040E+03	1.267E+01	-9.531E-01	9.835E-01	2.031E+00	-1.069E+00	1.558E+00	-8.459E-01	8.114E+01	1.500E+02	6.595E+02	4.075E+03
58.40	2.291E+01	5.039E+03	1.267E+01	-9.253E-01	9.714E-01	2.022E+00	-1.114E+00	1.544E+00	-8.029E-01	9.307E+01	1.445E+02	6.534E+02	4.088E+03
58.45	2.296E+01	5.039E+03	1.268E+01	-8.658E-01	9.379E-01	1.986E+00	-1.149E+00	1.547E+00	-7.628E-01	1.049E+02	1.387E+02	6.469E+02	4.089E+03
58.50	2.317E+01	5.038E+03	1.268E+01	-7.835E-01	8.876E-01	1.918E+00	-1.166E+00	1.547E+00	-7.175E-01	1.142E+02	1.335E+02	6.390E+02	4.081E+03
58.55	2.354E+01	5.038E+03	1.270E+01	-6.831E-01	8.258E-01	1.830E+00	-1.164E+00	1.528E+00	-6.578E-01	1.242E+02	1.237E+02	6.303E+02	4.102E+03
[...]
622.95	1.678E+01	5.035E+03	1.232E+01	5.634E-01	3.634E-02	3.039E+00	-7.191E-01	2.942E+00	-1.370E+00	1.325E+02	2.822E+01	8.083E+02	4.215E+03
623.00	1.695E+01	5.035E+03	1.233E+01	6.466E-01	3.161E-02	3.190E+00	-7.979E-01	2.824E+00	-1.328E+00	1.335E+02	3.929E+01	8.054E+02	4.204E+03
623.05	1.729E+01	5.036E+03	1.235E+01	7.306E-01	2.806E-02	3.335E+00	-8.697E-01	2.719E+00	-1.295E+00	1.361E+02	5.205E+01	8.006E+02	4.240E+03
623.10	1.728E+01	5.039E+03	1.237E+01	8.128E-01	3.218E-02	3.462E+00	-9.298E-01	2.644E+00	-1.269E+00	1.398E+02	5.954E+01	7.980E+02	4.320E+03
623.15	1.659E+01	5.044E+03	1.237E+01	8.919E-01	4.180E-02	3.560E+00	-9.777E-01	2.599E+00	-1.251E+00	1.419E+02	6.610E+01	7.952E+02	4.370E+03
623.20	1.636E+01	5.050E+03	1.237E+01	9.669E-01	4.999E-02	3.620E+00	-1.018E+00	2.566E+00	-1.245E+00	1.418E+02	7.777E+01	7.868E+02	4.322E+03
623.25	1.674E+01	5.051E+03	1.238E+01	1.028E+00	5.701E-02	3.641E+00	-1.054E+00	2.527E+00	-1.242E+00	1.457E+02	8.934E+01	7.796E+02	4.214E+03
623.30	1.663E+01	5.050E+03	1.241E+01	1.062E+00	7.042E-02	3.637E+00	-1.085E+00	2.462E+00	-1.227E+00	1.518E+02	9.661E+01	7.744E+02	4.161E+03
623.35	1.632E+01	5.048E+03	1.242E+01	1.068E+00	9.178E-02	3.631E+00	-1.116E+00	2.347E+00	-1.193E+00	1.506E+02	1.038E+02	7.653E+02	4.182E+03
623.40	1.648E+01	5.048E+03	1.243E+01	1.049E+00	1.152E-01	3.644E+00	-1.157E+00	2.170E+00	-1.135E+00	1.536E+02	1.071E+02	7.557E+02	4.203E+03
623.45	1.614E+01	5.047E+03	1.243E+01	1.016E+00	1.355E-01	3.681E+00	-1.213E+00	1.951E+00	-1.057E+00	1.549E+02	1.130E+02	7.507E+02	4.184E+03
623.50	1.558E+01	5.046E+03	1.244E+01	9.867E-01	1.517E-01	3.738E+00	-1.280E+00	1.713E+00	-9.673E-01	1.536E+02	1.190E+02	7.408E+02	4.158E+03
623.55	1.560E+01	5.045E+03	1.245E+01	9.684E-01	1.647E-01	3.803E+00	-1.351E+00	1.481E+00	-8.691E-01	1.511E+02	1.219E+02	7.297E+02	4.164E+03
623.60	1.615E+01	5.044E+03	1.246E+01	9.650E-01	1.723E-01	3.868E+00	-1.424E+00	1.276E+00	-7.690E-01	1.496E+02	1.231E+02	7.226E+02	4.195E+03
623.65	1.629E+01	5.045E+03	1.246E+01	9.756E-01	1.729E-01	3.934E+00	-1.501E+00	1.102E+00	-6.751E-01	1.452E+02	1.258E+02	7.127E+02	4.214E+03
623.70	1.598E+01	5.046E+03	1.246E+01	9.994E-01	1.660E-01	4.001E+00	-1.578E+00	9.571E-01	-5.891E-01	1.374E+02	1.303E+02	7.011E+02	4.192E+03
623.75	1.621E+01	5.045E+03	1.247E+01	1.039E+00	1.519E-01	4.067E+00	-1.649E+00	8.368E-01	-5.078E-01	1.398E+02	1.328E+02	6.928E+02	4.143E+03
623.80	1.648E+01	5.043E+03	1.248E+01	1.098E+00	1.342E-01	4.127E+00	-1.703E+00	7.272E-01	-4.253E-01	1.500E+02	1.288E+02	6.854E+02	4.121E+03
623.85	1.646E+01	5.041E+03	1.249E+01	1.182E+00	1.113E-01	4.179E+00	-1.743E+00	6.061E-01	-3.390E-01	1.573E+02	1.262E+02	6.753E+02	4.121E+03
623.90	1.620E+01	5.040E+03	1.250E+01	1.291E+00	7.896E-02	4.224E+00	-1.773E+00	4.733E-01	-2.538E-01	1.667E+02	1.235E+02	6.634E+02	4.133E+03
623.95	1.638E+01	5.039E+03	1.250E+01	1.422E+00	3.537E-02	4.260E+00	-1.795E+00	3.499E-01	-1.777E-01	1.752E+02	1.197E+02	6.526E+02	4.152E+03
624.00	1.650E+01	5.039E+03	1.250E+01	1.561E+00	-1.921E-02	4.278E+00	-1.813E+00	2.493E-01	-1.186E-01	1.856E+02	1.148E+02	6.428E+02	4.153E+03
624.05	1.631E+01	5.039E+03	1.251E+01	1.698E+00	-8.063E-02	4.260E+00	-1.821E+00	1.735E-01	-7.835E-02	1.949E+02	1.092E+02	6.310E+02	4.132E+03
624.10	1.590E+01	5.038E+03	1.252E+01	1.824E+00	-1.427E-01	4.194E+00	-1.811E+00	1.212E-01	-5.069E-02	2.034E+02	1.030E+02	6.207E+02	4.128E+03
624.15	1.651E+01	5.037E+03	1.253E+01	1.936E+00	-1.999E-01	4.085E+00	-1.783E+00	8.938E-02	-2.976E-02	2.031E+02	1.002E+02	6.113E+02	4.154E+03
624.20	1.660E+01	5.038E+03	1.253E+01	2.031E+00	-2.507E-01	3.943E+00	-1.742E+00	7.422E-02	-1.431E-02	1.937E+02	9.383E+01	5.971E+02	4.177E+03
624.25	1.655E+01	5.039E+03	1.254E+01	2.101E+00	-2.977E-01	3.789E+00	-1.701E+00	5.749E-02	1.601E-03	1.951E+02	8.687E+01	5.857E+02	4.161E+03
624.30	1.723E+01	5.040E+03	1.256E+01	2.151E+00	-3.393E-01	3.649E+00	-1.665E+00	1.864E-02	2.960E-02	1.916E+02	8.428E+01	5.783E+02	4.163E+03
624.35	1.754E+01	5.041E+03	1.258E+01	2.198E+00	-3.769E-01	3.531E+00	-1.635E+00	-3.634E-02	7.082E-02	1.908E+02	7.616E+01	5.686E+02	4.205E+03
624.40	1.705E+01	5.045E+03	1.259E+01	2.257E+00	-4.163E-01	3.434E+00	-1.611E+00	-7.150E-02	1.159E-01	1.922E+02	6.560E+01	5.610E+02	4.248E+03
624.45	1.740E+01	5.048E+03	1.259E+01	2.340E+00	-4.656E-01	3.346E+00	-1.592E+00	-6.118E-02	1.532E-01	1.934E+02	5.863E+01	5.554E+02	4.224E+03
624.50	1.715E+01	5.049E+03	1.258E+01	2.447E+00	-5.267E-01	3.248E+00	-1.574E+00	-9.682E-04	1.772E-01	1.909E+02	5.213E+01	5.473E+02	4.117E+03
624.55	1.667E+01	5.045E+03	1.259E+01	2.567E+00	-5.961E-01	3.127E+00	-1.551E+00	9.269E-02	1.921E-01	1.926E+02	4.559E+01	5.401E+02	3.988E+03
624.60	1.670E+01	5.038E+03	1.260E+01	2.692E+00	-6.680E-01	2.980E+00	-1.514E+00	1.996E-01	2.065E-01	2.007E+02	3.356E+01	5.341E+02	3.939E+03
624.65	1.683E+01	5.032E+03	1.261E+01	2.819E+00	-7.407E-01	2.810E+00	-1.462E+00	3.003E-01	2.246E-01	2.098E+02	1.892E+01	5.295E+02	3.988E+03
624.70	1.681E+01	5.029E+03	1.261E+01	2.933E+00	-8.133E-01	2.642E+00	-1.407E+00	3.857E-01	2.412E-01	2.169E+02	5.835E+00	5.245E+02	4.064E+03
624.75	1.704E+01	5.029E+03	1.261E+01	3.018E+00	-8.814E-01	2.482E+00	-1.350E+00	4.575E-01	2.506E-01	2.296E+02	-9.658E+00	5.189E+02	4.114E+03
624.80	1.720E+01	5.030E+03	1.261E+01	3.071E+00	-9.405E-01	2.318E+00	-1.286E+00	5.206E-01	2.520E-01	2.400E+02	-2.115E+01	5.140E+02	4.147E+03
624.85	1.700E+01	5.033E+03	1.263E+01	3.107E+00	-9.898E-01	2.138E+00	-1.207E+00	5.808E-01	2.481E-01	2.440E+02	-3.568E+01	5.082E+02	4.190E+03
624.90	1.752E+01	5.037E+03	1.264E+01	3.148E+00	-1.037E+00	1.943E+00	-1.112E+00	6.386E-01	2.402E-01	2.454E+02	-5.068E+01	5.039E+02	4.233E+03
624.95	1.726E+01	5.042E+03	1.264E+01	3.209E+00	-1.093E+00	1.732E+00	-1.007E+00	6.927E-01	2.261E-01	2.378E+02	-6.111E+01	5.021E+02	4.222E+03
625.00	1.699E+01	5.044E+03	1.264E+01	3.290E+00	-1.161E+00	1.506E+00	-8.992E-01	7.428E-01	2.016E-01	2.312E+02	-7.064E+01	5.006E+02	4.118E+03
625.05	1.730E+01	5.042E+03	1.265E+01	3.375E+00	-1.234E+00	1.272E+00	-7.908E-01	7.873E-01	1.718E-01	2.228E+02	-7.769E+01	5.002E+02	3.995E+03
625.10	1.769E+01	5.036E+03	1.266E+01	3.454E+00	-1.301E+00	1.037E+00	-6.799E-01	8.220E-01	1.462E-01	2.216E+02	-8.953E+01	5.001E+02	3.935E+03
625.15	1.765E+01	5.030E+03	1.266E+01	3.508E+00	-1.354E+00	8.086E-01	-5.691E-01	8.418E-01	1.313E-01	2.186E+02	-9.983E+01	5.009E+02	3.949E+03
625.20	1.761E+01	5.026E+03	1.266E+01	3.528E+00	-1.393E+00	5.954E-01	-4.672E-01	8.549E-01	1.235E-01	2.230E+02	-1.148E+02	5.018E+02	3.979E+03
625.25	1.758E+01	5.023E+03	1.265E+01	3.516E+00	-1.421E+00	4.034E-01	-3.796E-01	8.757E-01	1.162E-01	2.318E+02	-1.280E+02	5.034E+02	3.986E+03
625.30	1.800E+01	5.020E+03	1.265E+01	3.495E+00	-1.443E+00	2.353E-01	-3.038E-01	9.179E-01	1.073E-01	2.315E+02	-1.359E+02	5.060E+02	4.007E+03
625.35	1.777E+01	5.019E+03	1.265E+01	3.489E+00	-1.466E+00	9.232E-02	-2.416E-01	9.957E-01	9.027E-02	2.254E+02	-1.447E+02	5.088E+02	4.020E+03
625.40	1.741E+01	5.017E+03	1.264E+01	3.508E+00	-1.499E+00	-3.841E-02	-1.927E-01	1.112E+00	5.855E-02	2.180E+02	-1.514E+02	5.113E+02	3.984E+03
625.45	1.750E+01	5.014E+03	1.263E+01	3.552E+00	-1.538E+00	-1.599E-01	-1.515E-01	1.252E+00	1.693E-02	2.047E+02	-1.543E+02	5.137E+02	3.923E+03
625.50	1.751E+01	5.008E+03	1.263E+01	3.602E+00	-1.575E+00	-2.638E-01	-1.137E-01	1.394E+00	-2.419E-02	1.891E+02	-1.578E+02	5.164E+02	3.888E+03
625.55	1.787E+01	5.003E+03	1.262E+01	3.637E+00	-1.604E+00	-3.465E-01	-7.702E-02	1.517E+00	-5.901E-02	1.756E+02	-1.617E+02	5.218E+02	3.886E+03
625.60	1.795E+01	4.999E+03	1.262E+01	3.634E+00	-1.618E+00	-4.042E-01	-4.051E-02	1.617E+00	-8.868E-02	1.680E+02	-1.653E+02	5.289E+02	3.919E+03
625.65	1.809E+01	4.997E+03	1.262E+01	3.591E+00	-1.615E+00	-4.287E-01	-4.627E-03	1.712E+00	-1.207E-01	1.727E+02	-1.728E+02	5.384E+02	3.999E+03
625.70	1.850E+01	4.999E+03	1.263E+01	3.523E+00	-1.599E+00	-4.179E-01	3.093E-02	1.826E+00	-1.635E-01	1.772E+02	-1.817E+02	5.489E+02	4.107E+03
625.75	1.894E+01	5.003E+03	1.262E+01	3.436E+00	-1.578E+00	-3.823E-01	6.252E-02	1.969E+00	-2.275E-01	1.838E+02	-1.903E+02	5.575E+02	4.147E+03
625.80	1.949E+01	5.008E+03	1.262E+01	3.328E+00	-1.554E+00	-3.392E-01	9.089E-02	2.131E+00	-3.105E-01	1.911E+02	-1.972E+02	5.670E+02	4.106E+03
625.85	1.970E+01	5.009E+03	1.262E+01	3.209E+00	-1.524E+00	-3.028E-01	1.235E-01	2.295E+00	-4.008E-01	1.945E+02	-2.032E+02	5.773E+02	4.049E+03
625.90	1.949E+01	5.009E+03	1.264E+01	3.089E+00	-1.491E+00	-2.820E-01	1.653E-01	2.450E+00	-4.907E-01	1.965E+02	-2.112E+02	5.852E+02	4.023E+03
625.95	1.907E+01	5.009E+03	1.265E+01	2.975E+00	-1.456E+00	-2.676E-01	2.129E-01	2.592E+00	-5.752E-01	1.870E+02	-2.136E+02	5.963E+02	4.042E+03
626.00	1.867E+01	5.010E+03	1.265E+01	2.869E+00	-1.426E+00	-2.408E-01	2.558E-01	2.720E+00	-6.557E-01	1.838E+02	-2.193E+02	6.066E+02	4.070E+03
626.05	1.914E+01	5.012E+03	1.265E+01	2.769E+00	-1.401E+00	-1.968E-01	2.871E-01	2.832E+00	-7.322E-01	1.724E+02	-2.185E+02	6.199E+02	4.068E+03
626.10	1.912E+01	5.013E+03	1.264E+01	2.666E+00	-1.380E+00	-1.417E-01	3.046E-01	2.914E+00	-8.002E-01	1.624E+02	-2.181E+02	6.303E+02	4.027E+03
626.15	1.946E+01	5.012E+03	1.265E+01	2.552E+00	-1.355E+00	-8.946E-02	3.150E-01	2.960E+00	-8.523E-01	1.558E+02	-2.165E+02	6.431E+02	4.003E+03
626.20	1.951E+01	5.011E+03	1.267E+01	2.430E+00	-1.320E+00	-5.370E-02	3.288E-01	2.981E+00	-8.865E-01	1.516E+02	-2.162E+02	6.569E+02	4.044E+03
626.25	1.944E+01	5.013E+03	1.268E+01	2.306E+00	-1.275E+00	-3.411E-02	3.481E-01	2.989E+00	-9.081E-01	1.466E+02	-2.189E+02	6.684E+02	4.117E+03
626.30	1.917E+01	5.017E+03	1.268E+01	2.179E+00	-1.226E+00	-1.855E-02	3.659E-01	2.992E+00	-9.252E-01	1.435E+02	-2.200E+02	6.813E+02	4.145E+03
626.35	1.906E+01	5.020E+03	1.267E+01	2.051E+00	-1.178E+00	6.886E-03	3.742E-01	2.996E+00	-9.450E-01	1.422E+02	-2.156E+02	6.964E+02	4.088E+03
626.40	1.906E+01	5.020E+03	1.267E+01	1.910E+00	-1.123E+00	5.882E-02	3.683E-01	2.996E+00	-9.674E-01	1.375E+02	-2.101E+02	7.078E+02	3.999E+03
626.45	1.892E+01	5.017E+03	1.268E+01	1.746E+00	-1.058E+00	1.444E-01	3.486E-01	2.985E+00	-9.870E-01	1.359E+02	-2.081E+02	7.187E+02	3.940E+03
626.50	1.887E+01	5.013E+03	1.268E+01	1.548E+00	-9.800E-01	2.536E-01	3.190E-01	2.954E+00	-1.001E+00	1.342E+02	-2.046E+02	7.318E+02	3.921E+03
626.55	1.865E+01	5.009E+03	1.267E+01	1.317E+00	-8.899E-01	3.726E-01	2.835E-01	2.901E+00	-1.013E+00	1.233E+02	-1.981E+02	7.412E+02	3.915E+03
626.60	1.885E+01	5.006E+03	1.266E+01	1.070E+00	-7.939E-01	4.973E-01	2.443E-01	2.826E+00	-1.021E+00	1.121E+02	-1.925E+02	7.492E+02	3.911E+03
626.65	1.940E+01	5.002E+03	1.266E+01	8.126E-01	-6.945E-01	6.298E-01	2.034E-01	2.737E+00	-1.029E+00	1.030E+02	-1.828E+02	7.608E+02	3.922E+03
626.70	1.967E+01	5.000E+03	1.266E+01	5.599E-01	-5.915E-01	7.664E-01	1.625E-01	2.649E+00	-1.038E+00	8.711E+01	-1.721E+02	7.694E+02	3.960E+03
626.75	1.938E+01	4.999E+03	1.265E+01	3.224E-01	-4.893E-01	9.000E-01	1.211E-01	2.575E+00	-1.052E+00	6.651E+01	-1.637E+02	7.748E+02	3.991E+03
626.80	1.968E+01	4.999E+03	1.264E+01	1.078E-01	-3.974E-01	1.020E+00	7.899E-02	2.521E+00	-1.075E+00	5.278E+01	-1.507E+02	7.838E+02	3.961E+03
626.85	1.983E+01	4.996E+03	1.263E+01	-7.988E-02	-3.142E-01	1.118E+00	4.048E-02	2.497E+00	-1.111E+00	4.583E+01	-1.360E+02	7.941E+02	3.891E+03
626.90	1.965E+01	4.992E+03	1.263E+01	-2.527E-01	-2.261E-01	1.195E+00	1.149E-02	2.529E+00	-1.160E+00	3.867E+01	-1.257E+02	8.006E+02	3.857E+03
626.95	1.939E+01	4.987E+03	1.262E+01	-4.157E-01	-1.328E-01	1.268E+00	-1.029E-02	2.624E+00	-1.225E+00	3.301E+01	-1.159E+02	8.075E+02	3.868E+03
627.00	1.920E+01	4.984E+03	1.261E+01	-5.661E-01	-4.109E-02	1.354E+00	-3.537E-02	2.765E+00	-1.306E+00	3.681E+01	-1.038E+02	8.154E+02	3.883E+03
627.05	1.905E+01	4.981E+03	1.261E+01	-6.961E-01	4.670E-02	1.460E+00	-6.876E-02	2.918E+00	-1.388E+00	3.899E+01	-9.382E+01	8.192E+02	3.919E+03
627.10	1.863E+01	4.981E+03	1.261E+01	-7.911E-01	1.245E-01	1.583E+00	-1.068E-01	3.048E+00	-1.457E+00	3.925E+01	-8.230E+01	8.238E+02	4.004E+03
627.15	1.865E+01	4.984E+03	1.261E+01	-8.407E-01	1.859E-01	1.709E+00	-1.488E-01	3.134E+00	-1.506E+00	3.667E+01	-6.676E+01	8.295E+02	4.087E+03
627.20	1.870E+01	4.989E+03	1.261E+01	-8.486E-01	2.320E-01	1.825E+00	-1.944E-01	3.188E+00	-1.540E+00	2.994E+01	-5.123E+01	8.340E+02	4.128E+03
627.25	1.850E+01	4.995E+03	1.261E+01	-8.274E-01	2.672E-01	1.930E+00	-2.428E-01	3.236E+00	-1.570E+00	2.576E+01	-3.608E+01	8.390E+02	4.128E+03
627.30	1.843E+01	4.999E+03	1.262E+01	-7.893E-01	2.961E-01	2.032E+00	-2.943E-01	3.295E+00	-1.602E+00	2.813E+01	-2.167E+01	8.441E+02	4.106E+03
627.35	1.833E+01	5.002E+03	1.263E+01	-7.459E-01	3.215E-01	2.126E+00	-3.496E-01	3.370E+00	-1.638E+00	3.721E+01	-1.252E+01	8.469E+02	4.068E+03
627.40	1.816E+01	5.004E+03	1.263E+01	-7.062E-01	3.410E-01	2.213E+00	-4.098E-01	3.440E+00	-1.674E+00	4.658E+01	-4.771E+00	8.488E+02	4.013E+03
627.45	1.857E+01	5.003E+03	1.263E+01	-6.737E-01	3.523E-01	2.296E+00	-4.741E-01	3.464E+00	-1.695E+00	5.486E+01	5.833E+00	8.510E+02	3.966E+03
627.50	1.857E+01	5.001E+03	1.265E+01	-6.478E-01	3.598E-01	2.380E+00	-5.382E-01	3.410E+00	-1.689E+00	6.151E+01	1.587E+01	8.529E+02	3.982E+03
627.55	1.808E+01	5.002E+03	1.266E+01	-6.179E-01	3.670E-01	2.467E+00	-5.962E-01	3.275E+00	-1.648E+00	6.245E+01	2.371E+01	8.528E+02	4.083E+03
627.60	1.784E+01	5.007E+03	1.266E+01	-5.810E-01	3.732E-01	2.551E+00	-6.483E-01	3.075E+00	-1.581E+00	5.556E+01	3.217E+01	8.496E+02	4.181E+03
627.65	1.749E+01	5.013E+03	1.266E+01	-5.486E-01	3.768E-01	2.624E+00	-6.980E-01	2.836E+00	-1.501E+00	4.635E+01	4.204E+01	8.443E+02	4.180E+03
627.70	1.738E+01	5.017E+03	1.266E+01	-5.371E-01	3.821E-01	2.676E+00	-7.415E-01	2.581E+00	-1.418E+00	3.550E+01	5.685E+01	8.388E+02	4.099E+03
627.75	1.791E+01	5.018E+03	1.268E+01	-5.580E-01	4.001E-01	2.702E+00	-7.725E-01	2.338E+00	-1.335E+00	2.839E+01	6.814E+01	8.340E+02	4.035E+03
627.80	1.854E+01	5.017E+03	1.268E+01	-6.132E-01	4.353E-01	2.703E+00	-7.908E-01	2.128E+00	-1.255E+00	2.958E+01	7.142E+01	8.314E+02	4.009E+03
627.85	1.805E+01	5.016E+03	1.267E+01	-6.786E-01	4.777E-01	2.677E+00	-8.004E-01	1.953E+00	-1.188E+00	3.207E+01	7.612E+01	8.280E+02	3.962E+03
627.90	1.836E+01	5.011E+03	1.265E+01	-7.250E-01	5.160E-01	2.625E+00	-8.073E-01	1.805E+00	-1.136E+00	3.794E+01	8.569E+01	8.206E+02	3.860E+03
627.95	1.830E+01	5.003E+03	1.264E+01	-7.311E-01	5.458E-01	2.549E+00	-8.118E-01	1.681E+00	-1.092E+00	4.914E+01	8.961E+01	8.124E+02	3.756E+03
628.00	1.826E+01	4.993E+03	1.263E+01	-6.822E-01	5.605E-01	2.454E+00	-8.147E-01	1.545E+00	-1.042E+00	5.808E+01	9.396E+01	8.048E+02	3.696E+03
628.05	1.805E+01	4.982E+03	1.261E+01	-5.822E-01	5.568E-01	2.349E+00	-8.175E-01	1.367E+00	-9.794E-01	6.301E+01	1.021E+02	7.935E+02	3.693E+03
628.10	1.759E+01	4.974E+03	1.260E+01	-4.493E-01	5.384E-01	2.236E+00	-8.192E-01	1.156E+00	-9.036E-01	6.642E+01	1.114E+02	7.841E+02	3.758E+03
628.15	1.779E+01	4.969E+03	1.258E+01	-3.019E-01	5.121E-01	2.120E+00	-8.186E-01	9.315E-01	-8.172E-01	6.920E+01	1.202E+02	7.781E+02	3.866E+03
628.20	1.743E+01	4.968E+03	1.257E+01	-1.502E-01	4.813E-01	2.015E+00	-8.191E-01	7.067E-01	-7.278E-01	7.247E+01	1.288E+02	7.692E+02	3.958E+03
628.25	1.768E+01	4.969E+03	1.255E+01	1.690E-03	4.476E-01	1.940E+00	-8.269E-01	5.057E-01	-6.416E-01	8.327E+01	1.318E+02	7.582E+02	3.999E+03
628.30	1.764E+01	4.971E+03	1.254E+01	1.559E-01	4.088E-01	1.900E+00	-8.441E-01	3.450E-01	-5.627E-01	9.772E+01	1.310E+02	7.501E+02	3.977E+03
628.35	1.767E+01	4.971E+03	1.253E+01	3.236E-01	3.597E-01	1.885E+00	-8.659E-01	2.227E-01	-4.942E-01	1.114E+02	1.312E+02	7.399E+02	3.916E+03
628.40	1.763E+01	4.969E+03	1.252E+01	5.103E-01	2.985E-01	1.886E+00	-8.889E-01	1.433E-01	-4.375E-01	1.194E+02	1.284E+02	7.259E+02	3.850E+03
628.45	1.778E+01	4.964E+03	1.249E+01	7.075E-01	2.228E-01	1.904E+00	-9.157E-01	9.688E-02	-3.891E-01	1.313E+02	1.256E+02	7.172E+02	3.766E+03
628.50	1.789E+01	4.956E+03	1.248E+01	8.996E-01	1.401E-01	1.944E+00	-9.487E-01	4.796E-02	-3.388E-01	1.442E+02	1.250E+02	7.081E+02	3.704E+03
628.55	1.830E+01	4.948E+03	1.246E+01	1.069E+00	6.374E-02	2.011E+00	-9.868E-01	-9.160E-03	-2.815E-01	1.521E+02	1.202E+02	6.924E+02	3.718E+03
628.60	1.849E+01	4.942E+03	1.245E+01	1.205E+00	-1.935E-03	2.107E+00	-1.031E+00	-6.213E-02	-2.181E-01	1.670E+02	1.140E+02	6.810E+02	3.807E+03
628.65	1.835E+01	4.941E+03	1.245E+01	1.316E+00	-5.617E-02	2.215E+00	-1.077E+00	-1.002E-01	-1.542E-01	1.771E+02	1.090E+02	6.701E+02	3.962E+03
628.70	1.814E+01	4.946E+03	1.245E+01	1.412E+00	-1.020E-01	2.314E+00	-1.121E+00	-1.178E-01	-9.918E-02	1.786E+02	1.020E+02	6.524E+02	4.113E+03
628.75	1.778E+01	4.955E+03	1.244E+01	1.492E+00	-1.440E-01	2.405E+00	-1.171E+00	-1.100E-01	-5.924E-02	1.783E+02	9.800E+01	6.381E+02	4.179E+03
628.80	1.701E+01	4.963E+03	1.243E+01	1.555E+00	-1.815E-01	2.496E+00	-1.230E+00	-7.974E-02	-3.544E-02	1.749E+02	1.003E+02	6.283E+02	4.145E+03
628.85	1.662E+01	4.968E+03	1.243E+01	1.602E+00	-2.087E-01	2.583E+00	-1.294E+00	-3.600E-02	-2.341E-02	1.661E+02	1.021E+02	6.139E+02	4.065E+03
628.90	1.678E+01	4.970E+03	1.244E+01	1.638E+00	-2.231E-01	2.667E+00	-1.357E+00	1.491E-02	-1.450E-02	1.632E+02	1.026E+02	6.020E+02	4.005E+03
628.95	1.715E+01	4.971E+03	1.245E+01	1.675E+00	-2.278E-01	2.754E+00	-1.416E+00	5.813E-02	2.397E-04	1.656E+02	1.009E+02	5.945E+02	4.003E+03
629.00	1.710E+01	4.972E+03	1.244E+01	1.729E+00	-2.326E-01	2.835E+00	-1.472E+00	8.021E-02	2.028E-02	1.650E+02	9.741E+01	5.835E+02	4.019E+03
629.05	1.702E+01	4.973E+03	1.243E+01	1.810E+00	-2.496E-01	2.899E+00	-1.526E+00	8.160E-02	4.068E-02	1.605E+02	9.758E+01	5.720E+02	4.009E+03
629.10	1.704E+01	4.974E+03	1.244E+01	1.907E+00	-2.789E-01	2.942E+00	-1.572E+00	7.185E-02	6.093E-02	1.685E+02	9.512E+01	5.642E+02	4.015E+03
629.15	1.758E+01	4.976E+03	1.246E+01	2.006E+00	-3.122E-01	2.950E+00	-1.600E+00	6.179E-02	8.400E-02	1.685E+02	9.428E+01	5.577E+02	4.091E+03
629.20	1.790E+01	4.981E+03	1.246E+01	2.095E+00	-3.471E-01	2.913E+00	-1.606E+00	5.419E-02	1.095E-01	1.728E+02	8.700E+01	5.495E+02	4.189E+03
629.25	1.823E+01	4.989E+03	1.247E+01	2.165E+00	-3.841E-01	2.835E+00	-1.589E+00	5.048E-02	1.370E-01	1.820E+02	7.705E+01	5.428E+02	4.244E+03
629.30	1.840E+01	4.997E+03	1.247E+01	2.213E+00	-4.239E-01	2.733E+00	-1.556E+00	5.295E-02	1.664E-01	1.857E+02	6.821E+01	5.367E+02	4.225E+03
629.35	1.844E+01	5.002E+03	1.247E+01	2.239E+00	-4.654E-01	2.621E+00	-1.515E+00	6.276E-02	1.971E-01	1.843E+02	5.572E+01	5.285E+02	4.153E+03
629.40	1.784E+01	5.004E+03	1.248E+01	2.226E+00	-5.040E-01	2.524E+00	-1.473E+00	7.745E-02	2.285E-01	1.789E+02	4.460E+01	5.220E+02	4.058E+03
629.45	1.763E+01	5.002E+03	1.248E+01	2.173E+00	-5.378E-01	2.455E+00	-1.436E+00	8.488E-02	2.616E-01	1.729E+02	3.152E+01	5.161E+02	3.974E+03
629.50	1.786E+01	4.998E+03	1.248E+01	2.083E+00	-5.652E-01	2.418E+00	-1.410E+00	8.012E-02	2.958E-01	1.654E+02	2.124E+01	5.103E+02	3.924E+03
629.55	1.746E+01	4.994E+03	1.248E+01	1.961E+00	-5.814E-01	2.395E+00	-1.386E+00	6.545E-02	3.320E-01	1.557E+02	6.591E+00	5.037E+02	3.934E+03
629.60	1.774E+01	4.991E+03	1.247E+01	1.825E+00	-5.899E-01	2.346E+00	-1.351E+00	5.738E-02	3.631E-01	1.482E+02	-4.904E+00	4.994E+02	3.970E+03
629.65	1.827E+01	4.989E+03	1.246E+01	1.684E+00	-5.910E-01	2.247E+00	-1.299E+00	7.059E-02	3.821E-01	1.405E+02	-1.863E+01	4.954E+02	4.002E+03
629.70	1.851E+01	4.988E+03	1.245E+01	1.537E+00	-5.827E-01	2.097E+00	-1.234E+00	9.834E-02	3.886E-01	1.312E+02	-3.130E+01	4.919E+02	4.008E+03
629.75	1.824E+01	4.987E+03	1.245E+01	1.389E+00	-5.647E-01	1.908E+00	-1.155E+00	1.241E-01	3.881E-01	1.303E+02	-4.291E+01	4.902E+02	4.023E+03
629.80	1.874E+01	4.988E+03	1.246E+01	1.260E+00	-5.388E-01	1.707E+00	-1.067E+00	1.431E-01	3.860E-01	1.303E+02	-5.294E+01	4.892E+02	4.077E+03
629.85	1.913E+01	4.991E+03	1.245E+01	1.162E+00	-5.132E-01	1.508E+00	-9.812E-01	1.628E-01	3.800E-01	1.334E+02	-6.891E+01	4.874E+02	4.109E+03
629.90	1.938E+01	4.993E+03	1.244E+01	1.102E+00	-4.977E-01	1.324E+00	-9.052E-01	1.886E-01	3.665E-01	1.387E+02	-7.932E+01	4.866E+02	4.057E+03
629.95	1.879E+01	4.992E+03	1.243E+01	1.085E+00	-4.945E-01	1.172E+00	-8.389E-01	2.237E-01	3.503E-01	1.467E+02	-9.066E+01	4.880E+02	3.975E+03
630.00	1.863E+01	4.988E+03	1.243E+01	1.110E+00	-5.048E-01	1.062E+00	-7.809E-01	2.730E-01	3.340E-01	1.522E+02	-1.030E+02	4.912E+02	3.910E+03
