
"These predictions were generated by FAST (v6.10a-jmj, 21-Feb-2007) on 01-Apr-2007 at 16:56:52."
"The aerodynamic calculations were made by AeroDyn (12.60i-pjm, 16-Nov-2006)."

 NREL 5.0 MW Baseline Wind Turbine for Use in Offshore Analysis.

    Time	WindVxi	GenPwr	RotSpeed	OoPDefl1	IPDefl1	OoPDefl2	IPDefl2	OoPDefl3	IPDefl3	RootFxc1	RootFyc1	RootFzc1	RotTorq
   (sec)	(m/sec)	(kW)	(rpm)	(m)	(m)	(m)	(m)	(m)	(m)	(kN)	(kN)	(kN)	(kN·m)
30.00	1.468E+01	5.014E+03	1.262E+01	3.323E+00	-8.790E-01	3.181E+00	-1.053E+00	2.508E+00	-1.213E-01	2.013E+02	-9.121E+01	5.034E+02	4.020E+03
30.05	1.479E+01	5.014E+03	1.263E+01	3.349E+00	-9.209E-01	3.039E+00	-9.825E-01	2.699E+00	-1.779E-01	2.125E+02	-1.047E+02	5.095E+02	4.064E+03
30.10	1.454E+01	5.016E+03	1.264E+01	3.368E+00	-9.627E-01	2.868E+00	-9.041E-01	2.879E+00	-2.307E-01	2.261E+02	-1.180E+02	5.153E+02	4.126E+03
30.15	1.451E+01	5.020E+03	1.265E+01	3.399E+00	-1.007E+00	2.678E+00	-8.218E-01	3.017E+00	-2.709E-01	2.368E+02	-1.323E+02	5.205E+02	4.186E+03
30.20	1.449E+01	5.025E+03	1.265E+01	3.453E+00	-1.055E+00	2.491E+00	-7.427E-01	3.105E+00	-2.968E-01	2.400E+02	-1.446E+02	5.262E+02	4.204E+03
30.25	1.449E+01	5.029E+03	1.266E+01	3.525E+00	-1.107E+00	2.320E+00	-6.704E-01	3.159E+00	-3.118E-01	2.380E+02	-1.552E+02	5.293E+02	4.174E+03
30.30	1.476E+01	5.032E+03	1.267E+01	3.611E+00	-1.163E+00	2.163E+00	-6.058E-01	3.199E+00	-3.200E-01	2.359E+02	-1.670E+02	5.333E+02	4.108E+03
30.35	1.473E+01	5.031E+03	1.267E+01	3.705E+00	-1.221E+00	2.017E+00	-5.483E-01	3.237E+00	-3.245E-01	2.321E+02	-1.767E+02	5.422E+02	4.033E+03
30.40	1.470E+01	5.029E+03	1.268E+01	3.798E+00	-1.280E+00	1.891E+00	-4.968E-01	3.275E+00	-3.292E-01	2.272E+02	-1.845E+02	5.490E+02	3.973E+03
30.45	1.451E+01	5.025E+03	1.268E+01	3.883E+00	-1.336E+00	1.785E+00	-4.527E-01	3.318E+00	-3.371E-01	2.259E+02	-1.918E+02	5.568E+02	3.943E+03
30.50	1.429E+01	5.021E+03	1.268E+01	3.955E+00	-1.384E+00	1.695E+00	-4.142E-01	3.352E+00	-3.460E-01	2.295E+02	-2.007E+02	5.674E+02	3.955E+03
30.55	1.415E+01	5.018E+03	1.268E+01	4.009E+00	-1.422E+00	1.611E+00	-3.770E-01	3.363E+00	-3.550E-01	2.320E+02	-2.093E+02	5.753E+02	3.991E+03
30.60	1.412E+01	5.017E+03	1.268E+01	4.042E+00	-1.447E+00	1.522E+00	-3.378E-01	3.348E+00	-3.640E-01	2.330E+02	-2.162E+02	5.814E+02	4.031E+03
30.65	1.390E+01	5.017E+03	1.269E+01	4.058E+00	-1.463E+00	1.430E+00	-2.961E-01	3.303E+00	-3.716E-01	2.366E+02	-2.227E+02	5.911E+02	4.066E+03
30.70	1.354E+01	5.018E+03	1.269E+01	4.060E+00	-1.470E+00	1.354E+00	-2.536E-01	3.227E+00	-3.774E-01	2.386E+02	-2.277E+02	6.022E+02	4.083E+03
30.75	1.346E+01	5.020E+03	1.269E+01	4.038E+00	-1.468E+00	1.308E+00	-2.135E-01	3.122E+00	-3.827E-01	2.347E+02	-2.289E+02	6.103E+02	4.065E+03
30.80	1.344E+01	5.020E+03	1.268E+01	3.990E+00	-1.458E+00	1.294E+00	-1.785E-01	3.002E+00	-3.888E-01	2.319E+02	-2.296E+02	6.194E+02	4.013E+03
30.85	1.355E+01	5.018E+03	1.268E+01	3.914E+00	-1.441E+00	1.299E+00	-1.479E-01	2.884E+00	-3.978E-01	2.316E+02	-2.296E+02	6.338E+02	3.939E+03
30.90	1.364E+01	5.013E+03	1.267E+01	3.817E+00	-1.418E+00	1.307E+00	-1.197E-01	2.778E+00	-4.123E-01	2.305E+02	-2.294E+02	6.448E+02	3.855E+03
30.95	1.374E+01	5.005E+03	1.267E+01	3.699E+00	-1.389E+00	1.313E+00	-9.114E-02	2.692E+00	-4.296E-01	2.331E+02	-2.323E+02	6.544E+02	3.818E+03
31.00	1.400E+01	4.999E+03	1.266E+01	3.571E+00	-1.358E+00	1.316E+00	-6.105E-02	2.619E+00	-4.453E-01	2.331E+02	-2.337E+02	6.697E+02	3.844E+03
31.05	1.386E+01	4.994E+03	1.265E+01	3.453E+00	-1.330E+00	1.316E+00	-3.309E-02	2.540E+00	-4.586E-01	2.310E+02	-2.347E+02	6.811E+02	3.886E+03
31.10	1.379E+01	4.991E+03	1.264E+01	3.360E+00	-1.311E+00	1.322E+00	-1.105E-02	2.444E+00	-4.677E-01	2.205E+02	-2.325E+02	6.899E+02	3.917E+03
31.15	1.378E+01	4.989E+03	1.263E+01	3.283E+00	-1.298E+00	1.345E+00	3.138E-03	2.337E+00	-4.720E-01	2.089E+02	-2.270E+02	7.018E+02	3.936E+03
31.20	1.366E+01	4.988E+03	1.262E+01	3.216E+00	-1.288E+00	1.392E+00	9.101E-03	2.241E+00	-4.756E-01	2.020E+02	-2.225E+02	7.129E+02	3.950E+03
31.25	1.377E+01	4.988E+03	1.262E+01	3.155E+00	-1.274E+00	1.462E+00	7.924E-03	2.182E+00	-4.834E-01	1.923E+02	-2.174E+02	7.226E+02	3.958E+03
31.30	1.383E+01	4.987E+03	1.261E+01	3.095E+00	-1.256E+00	1.548E+00	7.079E-04	2.172E+00	-4.997E-01	1.909E+02	-2.137E+02	7.325E+02	3.953E+03
31.35	1.404E+01	4.986E+03	1.261E+01	3.038E+00	-1.232E+00	1.646E+00	-1.057E-02	2.203E+00	-5.232E-01	1.973E+02	-2.102E+02	7.450E+02	3.949E+03
31.40	1.442E+01	4.985E+03	1.260E+01	2.984E+00	-1.201E+00	1.757E+00	-2.464E-02	2.256E+00	-5.523E-01	1.990E+02	-2.055E+02	7.555E+02	3.954E+03
31.45	1.446E+01	4.985E+03	1.260E+01	2.934E+00	-1.165E+00	1.881E+00	-4.218E-02	2.319E+00	-5.886E-01	1.978E+02	-1.987E+02	7.639E+02	3.957E+03
31.50	1.462E+01	4.984E+03	1.259E+01	2.884E+00	-1.125E+00	2.016E+00	-6.301E-02	2.382E+00	-6.333E-01	1.975E+02	-1.887E+02	7.729E+02	3.955E+03
31.55	1.456E+01	4.984E+03	1.259E+01	2.838E+00	-1.082E+00	2.153E+00	-8.616E-02	2.443E+00	-6.855E-01	1.984E+02	-1.773E+02	7.801E+02	3.957E+03
31.60	1.392E+01	4.983E+03	1.259E+01	2.788E+00	-1.033E+00	2.288E+00	-1.093E-01	2.503E+00	-7.424E-01	1.937E+02	-1.650E+02	7.857E+02	3.981E+03
31.65	1.334E+01	4.984E+03	1.259E+01	2.722E+00	-9.769E-01	2.409E+00	-1.308E-01	2.575E+00	-8.033E-01	1.870E+02	-1.526E+02	7.923E+02	4.019E+03
31.70	1.308E+01	4.987E+03	1.259E+01	2.623E+00	-9.137E-01	2.507E+00	-1.506E-01	2.666E+00	-8.700E-01	1.802E+02	-1.393E+02	8.002E+02	4.041E+03
31.75	1.330E+01	4.989E+03	1.259E+01	2.477E+00	-8.419E-01	2.581E+00	-1.693E-01	2.769E+00	-9.406E-01	1.762E+02	-1.271E+02	8.082E+02	4.041E+03
31.80	1.316E+01	4.991E+03	1.259E+01	2.292E+00	-7.623E-01	2.635E+00	-1.862E-01	2.872E+00	-1.011E+00	1.691E+02	-1.144E+02	8.157E+02	4.037E+03
31.85	1.296E+01	4.993E+03	1.260E+01	2.095E+00	-6.802E-01	2.674E+00	-2.014E-01	2.968E+00	-1.076E+00	1.579E+02	-1.009E+02	8.219E+02	4.039E+03
31.90	1.300E+01	4.994E+03	1.260E+01	1.912E+00	-6.018E-01	2.703E+00	-2.172E-01	3.052E+00	-1.136E+00	1.447E+02	-8.713E+01	8.261E+02	4.032E+03
31.95	1.317E+01	4.995E+03	1.260E+01	1.754E+00	-5.305E-01	2.725E+00	-2.347E-01	3.127E+00	-1.189E+00	1.274E+02	-7.164E+01	8.292E+02	4.017E+03
32.00	1.293E+01	4.995E+03	1.259E+01	1.620E+00	-4.662E-01	2.750E+00	-2.551E-01	3.195E+00	-1.233E+00	1.117E+02	-5.593E+01	8.326E+02	3.997E+03
32.05	1.310E+01	4.995E+03	1.259E+01	1.501E+00	-4.071E-01	2.784E+00	-2.815E-01	3.259E+00	-1.268E+00	9.932E+01	-4.217E+01	8.356E+02	3.973E+03
32.10	1.332E+01	4.994E+03	1.259E+01	1.390E+00	-3.511E-01	2.826E+00	-3.122E-01	3.320E+00	-1.296E+00	9.134E+01	-2.935E+01	8.393E+02	3.965E+03
32.15	1.386E+01	4.992E+03	1.259E+01	1.281E+00	-2.964E-01	2.871E+00	-3.456E-01	3.378E+00	-1.318E+00	9.102E+01	-1.696E+01	8.426E+02	3.970E+03
32.20	1.423E+01	4.992E+03	1.259E+01	1.175E+00	-2.422E-01	2.909E+00	-3.784E-01	3.432E+00	-1.337E+00	9.510E+01	-5.903E+00	8.442E+02	3.987E+03
32.25	1.403E+01	4.992E+03	1.259E+01	1.084E+00	-1.902E-01	2.927E+00	-4.071E-01	3.478E+00	-1.352E+00	1.031E+02	2.710E+00	8.437E+02	4.005E+03
32.30	1.417E+01	4.992E+03	1.258E+01	1.017E+00	-1.441E-01	2.912E+00	-4.278E-01	3.509E+00	-1.364E+00	1.122E+02	1.044E+01	8.414E+02	4.007E+03
32.35	1.400E+01	4.992E+03	1.258E+01	9.843E-01	-1.083E-01	2.849E+00	-4.371E-01	3.520E+00	-1.372E+00	1.185E+02	1.949E+01	8.384E+02	3.983E+03
32.40	1.379E+01	4.991E+03	1.257E+01	9.926E-01	-8.440E-02	2.744E+00	-4.342E-01	3.503E+00	-1.375E+00	1.187E+02	3.090E+01	8.346E+02	3.958E+03
32.45	1.404E+01	4.989E+03	1.257E+01	1.035E+00	-7.061E-02	2.616E+00	-4.247E-01	3.456E+00	-1.371E+00	1.149E+02	4.138E+01	8.305E+02	3.932E+03
32.50	1.419E+01	4.987E+03	1.255E+01	1.091E+00	-6.381E-02	2.487E+00	-4.160E-01	3.370E+00	-1.359E+00	1.121E+02	5.057E+01	8.259E+02	3.896E+03
32.55	1.422E+01	4.983E+03	1.255E+01	1.138E+00	-5.822E-02	2.372E+00	-4.121E-01	3.247E+00	-1.340E+00	1.117E+02	6.155E+01	8.193E+02	3.866E+03
32.60	1.449E+01	4.978E+03	1.254E+01	1.157E+00	-4.684E-02	2.275E+00	-4.116E-01	3.104E+00	-1.314E+00	1.150E+02	6.960E+01	8.105E+02	3.866E+03
32.65	1.442E+01	4.975E+03	1.253E+01	1.146E+00	-2.832E-02	2.179E+00	-4.112E-01	2.961E+00	-1.282E+00	1.241E+02	7.302E+01	8.041E+02	3.892E+03
32.70	1.427E+01	4.973E+03	1.252E+01	1.119E+00	-6.951E-03	2.074E+00	-4.076E-01	2.820E+00	-1.245E+00	1.321E+02	7.771E+01	7.955E+02	3.924E+03
32.75	1.408E+01	4.971E+03	1.251E+01	1.096E+00	1.243E-02	1.962E+00	-4.032E-01	2.678E+00	-1.205E+00	1.385E+02	8.485E+01	7.858E+02	3.944E+03
32.80	1.414E+01	4.971E+03	1.250E+01	1.094E+00	2.856E-02	1.866E+00	-4.038E-01	2.536E+00	-1.159E+00	1.428E+02	9.145E+01	7.785E+02	3.960E+03
32.85	1.421E+01	4.971E+03	1.249E+01	1.121E+00	4.026E-02	1.808E+00	-4.149E-01	2.408E+00	-1.112E+00	1.428E+02	9.754E+01	7.679E+02	3.967E+03
32.90	1.435E+01	4.971E+03	1.248E+01	1.172E+00	4.669E-02	1.799E+00	-4.418E-01	2.303E+00	-1.067E+00	1.432E+02	1.030E+02	7.555E+02	3.943E+03
32.95	1.428E+01	4.969E+03	1.246E+01	1.230E+00	4.989E-02	1.834E+00	-4.837E-01	2.216E+00	-1.024E+00	1.436E+02	1.079E+02	7.446E+02	3.896E+03
33.00	1.430E+01	4.965E+03	1.245E+01	1.286E+00	5.092E-02	1.908E+00	-5.372E-01	2.145E+00	-9.830E-01	1.449E+02	1.129E+02	7.342E+02	3.848E+03
33.05	1.438E+01	4.961E+03	1.244E+01	1.343E+00	5.035E-02	2.001E+00	-5.964E-01	2.081E+00	-9.426E-01	1.463E+02	1.184E+02	7.235E+02	3.831E+03
33.10	1.412E+01	4.956E+03	1.243E+01	1.409E+00	4.739E-02	2.101E+00	-6.575E-01	2.016E+00	-9.003E-01	1.473E+02	1.239E+02	7.130E+02	3.855E+03
33.15	1.399E+01	4.954E+03	1.242E+01	1.491E+00	4.059E-02	2.204E+00	-7.203E-01	1.950E+00	-8.567E-01	1.504E+02	1.287E+02	7.031E+02	3.910E+03
33.20	1.410E+01	4.954E+03	1.241E+01	1.592E+00	2.947E-02	2.309E+00	-7.843E-01	1.883E+00	-8.123E-01	1.535E+02	1.307E+02	6.912E+02	3.976E+03
33.25	1.387E+01	4.956E+03	1.240E+01	1.704E+00	1.330E-02	2.411E+00	-8.487E-01	1.807E+00	-7.664E-01	1.568E+02	1.316E+02	6.795E+02	4.018E+03
33.30	1.407E+01	4.958E+03	1.239E+01	1.819E+00	-7.596E-03	2.506E+00	-9.112E-01	1.719E+00	-7.190E-01	1.612E+02	1.333E+02	6.682E+02	4.024E+03
33.35	1.405E+01	4.960E+03	1.239E+01	1.927E+00	-3.034E-02	2.596E+00	-9.686E-01	1.626E+00	-6.701E-01	1.663E+02	1.344E+02	6.569E+02	4.019E+03
33.40	1.388E+01	4.962E+03	1.239E+01	2.019E+00	-5.150E-02	2.687E+00	-1.020E+00	1.535E+00	-6.187E-01	1.746E+02	1.334E+02	6.460E+02	4.022E+03
33.45	1.378E+01	4.964E+03	1.239E+01	2.085E+00	-6.784E-02	2.781E+00	-1.066E+00	1.450E+00	-5.647E-01	1.824E+02	1.306E+02	6.359E+02	4.035E+03
33.50	1.376E+01	4.966E+03	1.238E+01	2.124E+00	-8.100E-02	2.876E+00	-1.110E+00	1.381E+00	-5.128E-01	1.852E+02	1.277E+02	6.236E+02	4.025E+03
33.55	1.366E+01	4.966E+03	1.236E+01	2.151E+00	-9.719E-02	2.976E+00	-1.156E+00	1.328E+00	-4.652E-01	1.879E+02	1.228E+02	6.108E+02	3.979E+03
33.60	1.407E+01	4.965E+03	1.236E+01	2.180E+00	-1.201E-01	3.077E+00	-1.203E+00	1.288E+00	-4.209E-01	1.881E+02	1.199E+02	6.016E+02	3.931E+03
33.65	1.433E+01	4.962E+03	1.235E+01	2.223E+00	-1.494E-01	3.171E+00	-1.247E+00	1.253E+00	-3.788E-01	1.834E+02	1.151E+02	5.899E+02	3.916E+03
33.70	1.435E+01	4.960E+03	1.234E+01	2.274E+00	-1.839E-01	3.257E+00	-1.286E+00	1.215E+00	-3.380E-01	1.748E+02	1.106E+02	5.784E+02	3.933E+03
33.75	1.423E+01	4.958E+03	1.233E+01	2.328E+00	-2.222E-01	3.331E+00	-1.322E+00	1.176E+00	-3.003E-01	1.665E+02	1.085E+02	5.683E+02	3.954E+03
33.80	1.440E+01	4.957E+03	1.232E+01	2.381E+00	-2.602E-01	3.388E+00	-1.353E+00	1.137E+00	-2.653E-01	1.606E+02	1.050E+02	5.567E+02	3.976E+03
33.85	1.464E+01	4.958E+03	1.232E+01	2.424E+00	-2.922E-01	3.432E+00	-1.377E+00	1.100E+00	-2.292E-01	1.588E+02	9.826E+01	5.450E+02	4.017E+03
33.90	1.474E+01	4.960E+03	1.232E+01	2.447E+00	-3.151E-01	3.464E+00	-1.395E+00	1.070E+00	-1.908E-01	1.651E+02	8.947E+01	5.366E+02	4.066E+03
33.95	1.465E+01	4.963E+03	1.231E+01	2.440E+00	-3.292E-01	3.479E+00	-1.406E+00	1.046E+00	-1.533E-01	1.710E+02	7.969E+01	5.284E+02	4.085E+03
34.00	1.473E+01	4.965E+03	1.230E+01	2.406E+00	-3.379E-01	3.470E+00	-1.412E+00	1.022E+00	-1.195E-01	1.825E+02	6.908E+01	5.193E+02	4.052E+03
34.05	1.470E+01	4.966E+03	1.229E+01	2.353E+00	-3.422E-01	3.428E+00	-1.406E+00	9.921E-01	-8.700E-02	1.896E+02	6.109E+01	5.117E+02	4.002E+03
34.10	1.446E+01	4.964E+03	1.228E+01	2.298E+00	-3.459E-01	3.342E+00	-1.385E+00	9.577E-01	-5.609E-02	1.906E+02	5.256E+01	5.031E+02	3.951E+03
34.15	1.425E+01	4.961E+03	1.226E+01	2.255E+00	-3.543E-01	3.206E+00	-1.350E+00	9.198E-01	-2.801E-02	1.880E+02	4.371E+01	4.936E+02	3.898E+03
34.20	1.447E+01	4.956E+03	1.225E+01	2.224E+00	-3.683E-01	3.032E+00	-1.303E+00	8.819E-01	-1.395E-03	1.758E+02	3.547E+01	4.849E+02	3.863E+03
34.25	1.432E+01	4.950E+03	1.223E+01	2.191E+00	-3.863E-01	2.836E+00	-1.250E+00	8.481E-01	2.296E-02	1.628E+02	2.664E+01	4.784E+02	3.843E+03
34.30	1.397E+01	4.944E+03	1.221E+01	2.139E+00	-4.056E-01	2.642E+00	-1.197E+00	8.240E-01	4.330E-02	1.530E+02	1.936E+01	4.742E+02	3.849E+03
34.35	1.369E+01	4.940E+03	1.220E+01	2.064E+00	-4.210E-01	2.467E+00	-1.147E+00	8.211E-01	5.938E-02	1.497E+02	8.021E+00	4.706E+02	3.904E+03
34.40	1.377E+01	4.939E+03	1.219E+01	1.976E+00	-4.330E-01	2.325E+00	-1.101E+00	8.495E-01	7.035E-02	1.530E+02	-5.890E+00	4.676E+02	3.993E+03
34.45	1.402E+01	4.940E+03	1.217E+01	1.900E+00	-4.482E-01	2.222E+00	-1.062E+00	9.139E-01	7.397E-02	1.593E+02	-1.981E+01	4.648E+02	4.057E+03
34.50	1.425E+01	4.943E+03	1.215E+01	1.863E+00	-4.751E-01	2.155E+00	-1.031E+00	1.010E+00	6.895E-02	1.614E+02	-3.273E+01	4.617E+02	4.046E+03
34.55	1.454E+01	4.943E+03	1.213E+01	1.876E+00	-5.157E-01	2.109E+00	-1.007E+00	1.124E+00	5.840E-02	1.655E+02	-4.461E+01	4.594E+02	3.978E+03
34.60	1.457E+01	4.941E+03	1.213E+01	1.931E+00	-5.634E-01	2.068E+00	-9.784E-01	1.244E+00	4.919E-02	1.677E+02	-5.488E+01	4.583E+02	3.937E+03
34.65	1.441E+01	4.939E+03	1.212E+01	2.017E+00	-6.126E-01	2.020E+00	-9.420E-01	1.368E+00	4.364E-02	1.690E+02	-6.707E+01	4.579E+02	3.957E+03
34.70	1.427E+01	4.938E+03	1.211E+01	2.129E+00	-6.651E-01	1.961E+00	-9.002E-01	1.496E+00	3.655E-02	1.732E+02	-8.096E+01	4.577E+02	3.994E+03
34.75	1.442E+01	4.938E+03	1.209E+01	2.267E+00	-7.251E-01	1.894E+00	-8.569E-01	1.632E+00	2.240E-02	1.785E+02	-9.109E+01	4.575E+02	4.011E+03
34.80	1.441E+01	4.938E+03	1.209E+01	2.430E+00	-7.914E-01	1.830E+00	-8.141E-01	1.780E+00	1.189E-03	1.842E+02	-1.017E+02	4.581E+02	4.032E+03
34.85	1.424E+01	4.940E+03	1.208E+01	2.605E+00	-8.600E-01	1.780E+00	-7.731E-01	1.939E+00	-2.496E-02	1.928E+02	-1.154E+02	4.598E+02	4.077E+03
34.90	1.390E+01	4.943E+03	1.207E+01	2.780E+00	-9.305E-01	1.749E+00	-7.360E-01	2.093E+00	-5.474E-02	2.010E+02	-1.285E+02	4.623E+02	4.118E+03
34.95	1.359E+01	4.946E+03	1.207E+01	2.949E+00	-1.003E+00	1.728E+00	-7.024E-01	2.225E+00	-8.615E-02	2.072E+02	-1.389E+02	4.657E+02	4.137E+03
35.00	1.352E+01	4.950E+03	1.206E+01	3.111E+00	-1.075E+00	1.704E+00	-6.686E-01	2.324E+00	-1.155E-01	2.113E+02	-1.492E+02	4.697E+02	4.138E+03
35.05	1.359E+01	4.953E+03	1.207E+01	3.266E+00	-1.143E+00	1.675E+00	-6.325E-01	2.387E+00	-1.401E-01	2.151E+02	-1.595E+02	4.736E+02	4.141E+03
35.10	1.384E+01	4.956E+03	1.206E+01	3.410E+00	-1.205E+00	1.654E+00	-5.947E-01	2.419E+00	-1.585E-01	2.117E+02	-1.684E+02	4.779E+02	4.152E+03
35.15	1.401E+01	4.959E+03	1.206E+01	3.540E+00	-1.261E+00	1.650E+00	-5.587E-01	2.425E+00	-1.720E-01	2.107E+02	-1.778E+02	4.813E+02	4.154E+03
35.20	1.416E+01	4.962E+03	1.206E+01	3.655E+00	-1.313E+00	1.665E+00	-5.260E-01	2.411E+00	-1.811E-01	2.132E+02	-1.884E+02	4.872E+02	4.151E+03
35.25	1.404E+01	4.964E+03	1.206E+01	3.756E+00	-1.361E+00	1.690E+00	-4.941E-01	2.388E+00	-1.880E-01	2.090E+02	-1.947E+02	4.949E+02	4.141E+03
35.30	1.392E+01	4.966E+03	1.205E+01	3.841E+00	-1.406E+00	1.715E+00	-4.636E-01	2.366E+00	-1.972E-01	2.102E+02	-2.000E+02	5.015E+02	4.121E+03
35.35	1.395E+01	4.967E+03	1.206E+01	3.901E+00	-1.443E+00	1.731E+00	-4.324E-01	2.358E+00	-2.080E-01	2.178E+02	-2.076E+02	5.099E+02	4.127E+03
35.40	1.438E+01	4.968E+03	1.206E+01	3.924E+00	-1.466E+00	1.729E+00	-3.969E-01	2.364E+00	-2.184E-01	2.247E+02	-2.157E+02	5.193E+02	4.168E+03
35.45	1.478E+01	4.971E+03	1.206E+01	3.911E+00	-1.475E+00	1.705E+00	-3.583E-01	2.377E+00	-2.283E-01	2.369E+02	-2.267E+02	5.263E+02	4.209E+03
35.50	1.497E+01	4.975E+03	1.205E+01	3.870E+00	-1.477E+00	1.659E+00	-3.198E-01	2.396E+00	-2.395E-01	2.462E+02	-2.360E+02	5.367E+02	4.209E+03
35.55	1.478E+01	4.977E+03	1.204E+01	3.812E+00	-1.475E+00	1.598E+00	-2.835E-01	2.415E+00	-2.554E-01	2.467E+02	-2.396E+02	5.462E+02	4.157E+03
35.60	1.459E+01	4.977E+03	1.204E+01	3.748E+00	-1.471E+00	1.525E+00	-2.482E-01	2.428E+00	-2.747E-01	2.399E+02	-2.409E+02	5.531E+02	4.096E+03
35.65	1.452E+01	4.975E+03	1.204E+01	3.681E+00	-1.464E+00	1.444E+00	-2.136E-01	2.428E+00	-2.936E-01	2.300E+02	-2.417E+02	5.639E+02	4.060E+03
35.70	1.456E+01	4.972E+03	1.202E+01	3.599E+00	-1.452E+00	1.357E+00	-1.798E-01	2.406E+00	-3.128E-01	2.116E+02	-2.379E+02	5.746E+02	4.031E+03
35.75	1.459E+01	4.968E+03	1.201E+01	3.478E+00	-1.426E+00	1.265E+00	-1.453E-01	2.363E+00	-3.327E-01	1.931E+02	-2.357E+02	5.783E+02	4.010E+03
35.80	1.444E+01	4.964E+03	1.201E+01	3.300E+00	-1.381E+00	1.175E+00	-1.073E-01	2.310E+00	-3.502E-01	1.824E+02	-2.335E+02	5.896E+02	4.033E+03
35.85	1.429E+01	4.961E+03	1.200E+01	3.079E+00	-1.318E+00	1.094E+00	-6.623E-02	2.263E+00	-3.691E-01	1.752E+02	-2.297E+02	6.039E+02	4.079E+03
35.90	1.388E+01	4.961E+03	1.198E+01	2.842E+00	-1.245E+00	1.030E+00	-2.623E-02	2.236E+00	-3.960E-01	1.703E+02	-2.291E+02	6.104E+02	4.111E+03
35.95	1.366E+01	4.961E+03	1.197E+01	2.611E+00	-1.172E+00	1.000E+00	6.925E-03	2.232E+00	-4.310E-01	1.723E+02	-2.266E+02	6.223E+02	4.123E+03
36.00	1.341E+01	4.961E+03	1.196E+01	2.417E+00	-1.109E+00	1.014E+00	2.898E-02	2.240E+00	-4.714E-01	1.729E+02	-2.214E+02	6.355E+02	4.104E+03
36.05	1.359E+01	4.960E+03	1.194E+01	2.285E+00	-1.058E+00	1.080E+00	3.755E-02	2.252E+00	-5.146E-01	1.670E+02	-2.176E+02	6.418E+02	4.061E+03
36.10	1.356E+01	4.956E+03	1.193E+01	2.218E+00	-1.025E+00	1.202E+00	3.217E-02	2.272E+00	-5.586E-01	1.585E+02	-2.125E+02	6.505E+02	4.012E+03
36.15	1.375E+01	4.951E+03	1.191E+01	2.199E+00	-1.004E+00	1.371E+00	1.476E-02	2.308E+00	-6.032E-01	1.479E+02	-2.030E+02	6.621E+02	3.967E+03
36.20	1.367E+01	4.945E+03	1.189E+01	2.203E+00	-9.887E-01	1.560E+00	-9.731E-03	2.355E+00	-6.471E-01	1.427E+02	-1.974E+02	6.686E+02	3.949E+03
36.25	1.347E+01	4.940E+03	1.188E+01	2.205E+00	-9.720E-01	1.748E+00	-3.478E-02	2.410E+00	-6.863E-01	1.414E+02	-1.897E+02	6.780E+02	3.990E+03
36.30	1.365E+01	4.938E+03	1.188E+01	2.194E+00	-9.504E-01	1.915E+00	-5.705E-02	2.474E+00	-7.208E-01	1.503E+02	-1.844E+02	6.879E+02	4.089E+03
36.35	1.351E+01	4.940E+03	1.187E+01	2.175E+00	-9.242E-01	2.059E+00	-7.745E-02	2.558E+00	-7.540E-01	1.549E+02	-1.800E+02	6.948E+02	4.204E+03
36.40	1.372E+01	4.945E+03	1.186E+01	2.159E+00	-8.987E-01	2.185E+00	-9.890E-02	2.664E+00	-7.903E-01	1.610E+02	-1.746E+02	7.018E+02	4.282E+03
36.45	1.396E+01	4.952E+03	1.186E+01	2.152E+00	-8.758E-01	2.301E+00	-1.219E-01	2.792E+00	-8.317E-01	1.660E+02	-1.670E+02	7.102E+02	4.308E+03
36.50	1.377E+01	4.959E+03	1.186E+01	2.151E+00	-8.518E-01	2.413E+00	-1.454E-01	2.944E+00	-8.794E-01	1.663E+02	-1.589E+02	7.171E+02	4.291E+03
36.55	1.422E+01	4.964E+03	1.185E+01	2.154E+00	-8.265E-01	2.516E+00	-1.679E-01	3.113E+00	-9.340E-01	1.586E+02	-1.495E+02	7.219E+02	4.244E+03
36.60	1.437E+01	4.965E+03	1.185E+01	2.158E+00	-8.018E-01	2.599E+00	-1.876E-01	3.286E+00	-9.957E-01	1.541E+02	-1.391E+02	7.274E+02	4.173E+03
36.65	1.451E+01	4.964E+03	1.184E+01	2.161E+00	-7.770E-01	2.650E+00	-2.030E-01	3.455E+00	-1.063E+00	1.454E+02	-1.257E+02	7.324E+02	4.103E+03
36.70	1.485E+01	4.961E+03	1.184E+01	2.160E+00	-7.493E-01	2.669E+00	-2.115E-01	3.611E+00	-1.132E+00	1.393E+02	-1.144E+02	7.367E+02	4.083E+03
36.75	1.484E+01	4.959E+03	1.184E+01	2.157E+00	-7.171E-01	2.663E+00	-2.113E-01	3.749E+00	-1.198E+00	1.356E+02	-1.043E+02	7.420E+02	4.136E+03
36.80	1.462E+01	4.959E+03	1.184E+01	2.151E+00	-6.822E-01	2.640E+00	-2.051E-01	3.867E+00	-1.260E+00	1.332E+02	-9.194E+01	7.477E+02	4.218E+03
36.85	1.438E+01	4.963E+03	1.184E+01	2.144E+00	-6.452E-01	2.605E+00	-1.953E-01	3.960E+00	-1.317E+00	1.345E+02	-8.103E+01	7.520E+02	4.289E+03
36.90	1.425E+01	4.968E+03	1.184E+01	2.143E+00	-6.086E-01	2.558E+00	-1.830E-01	4.033E+00	-1.369E+00	1.373E+02	-7.032E+01	7.550E+02	4.331E+03
36.95	1.389E+01	4.974E+03	1.184E+01	2.158E+00	-5.757E-01	2.508E+00	-1.696E-01	4.093E+00	-1.416E+00	1.407E+02	-5.728E+01	7.578E+02	4.345E+03
37.00	1.400E+01	4.980E+03	1.184E+01	2.187E+00	-5.464E-01	2.463E+00	-1.580E-01	4.138E+00	-1.453E+00	1.426E+02	-4.535E+01	7.596E+02	4.340E+03
37.05	1.412E+01	4.984E+03	1.185E+01	2.216E+00	-5.174E-01	2.432E+00	-1.514E-01	4.161E+00	-1.477E+00	1.433E+02	-3.556E+01	7.612E+02	4.319E+03
37.10	1.421E+01	4.987E+03	1.184E+01	2.228E+00	-4.872E-01	2.423E+00	-1.539E-01	4.163E+00	-1.490E+00	1.403E+02	-2.555E+01	7.623E+02	4.268E+03
37.15	1.391E+01	4.987E+03	1.183E+01	2.212E+00	-4.564E-01	2.436E+00	-1.685E-01	4.141E+00	-1.493E+00	1.356E+02	-1.337E+01	7.620E+02	4.178E+03
37.20	1.345E+01	4.983E+03	1.182E+01	2.166E+00	-4.247E-01	2.462E+00	-1.948E-01	4.085E+00	-1.486E+00	1.343E+02	-2.272E+00	7.607E+02	4.077E+03
37.25	1.334E+01	4.976E+03	1.182E+01	2.094E+00	-3.908E-01	2.490E+00	-2.283E-01	3.981E+00	-1.463E+00	1.350E+02	6.019E+00	7.588E+02	4.026E+03
37.30	1.361E+01	4.969E+03	1.181E+01	2.008E+00	-3.554E-01	2.515E+00	-2.651E-01	3.822E+00	-1.422E+00	1.374E+02	1.380E+01	7.561E+02	4.054E+03
37.35	1.406E+01	4.965E+03	1.180E+01	1.924E+00	-3.214E-01	2.538E+00	-3.042E-01	3.615E+00	-1.366E+00	1.398E+02	2.084E+01	7.533E+02	4.133E+03
37.40	1.415E+01	4.964E+03	1.179E+01	1.860E+00	-2.924E-01	2.562E+00	-3.460E-01	3.383E+00	-1.302E+00	1.408E+02	2.837E+01	7.502E+02	4.219E+03
37.45	1.422E+01	4.966E+03	1.178E+01	1.827E+00	-2.688E-01	2.595E+00	-3.900E-01	3.144E+00	-1.235E+00	1.393E+02	3.722E+01	7.449E+02	4.276E+03
37.50	1.446E+01	4.969E+03	1.178E+01	1.820E+00	-2.485E-01	2.638E+00	-4.362E-01	2.916E+00	-1.171E+00	1.371E+02	4.621E+01	7.391E+02	4.284E+03
37.55	1.465E+01	4.972E+03	1.177E+01	1.826E+00	-2.274E-01	2.691E+00	-4.823E-01	2.724E+00	-1.115E+00	1.372E+02	5.377E+01	7.325E+02	4.260E+03
37.60	1.490E+01	4.973E+03	1.176E+01	1.837E+00	-2.042E-01	2.752E+00	-5.265E-01	2.580E+00	-1.072E+00	1.377E+02	6.253E+01	7.246E+02	4.216E+03
37.65	1.464E+01	4.972E+03	1.176E+01	1.855E+00	-1.800E-01	2.814E+00	-5.665E-01	2.484E+00	-1.042E+00	1.401E+02	7.102E+01	7.170E+02	4.172E+03
37.70	1.447E+01	4.969E+03	1.175E+01	1.887E+00	-1.575E-01	2.868E+00	-6.015E-01	2.416E+00	-1.020E+00	1.472E+02	7.859E+01	7.110E+02	4.127E+03
37.75	1.456E+01	4.965E+03	1.174E+01	1.939E+00	-1.388E-01	2.917E+00	-6.322E-01	2.366E+00	-1.004E+00	1.554E+02	8.733E+01	7.037E+02	4.100E+03
37.80	1.485E+01	4.960E+03	1.173E+01	2.014E+00	-1.247E-01	2.965E+00	-6.597E-01	2.332E+00	-9.921E-01	1.661E+02	9.392E+01	6.957E+02	4.109E+03
37.85	1.483E+01	4.957E+03	1.172E+01	2.116E+00	-1.172E-01	3.015E+00	-6.861E-01	2.316E+00	-9.838E-01	1.729E+02	1.008E+02	6.867E+02	4.159E+03
37.90	1.486E+01	4.957E+03	1.171E+01	2.242E+00	-1.193E-01	3.071E+00	-7.152E-01	2.328E+00	-9.810E-01	1.784E+02	1.057E+02	6.749E+02	4.220E+03
37.95	1.456E+01	4.958E+03	1.170E+01	2.377E+00	-1.314E-01	3.135E+00	-7.512E-01	2.370E+00	-9.840E-01	1.870E+02	1.103E+02	6.665E+02	4.263E+03
38.00	1.461E+01	4.961E+03	1.171E+01	2.509E+00	-1.485E-01	3.207E+00	-7.917E-01	2.439E+00	-9.887E-01	1.948E+02	1.147E+02	6.574E+02	4.309E+03
38.05	1.448E+01	4.966E+03	1.171E+01	2.625E+00	-1.649E-01	3.283E+00	-8.330E-01	2.518E+00	-9.881E-01	2.038E+02	1.170E+02	6.461E+02	4.369E+03
38.10	1.441E+01	4.972E+03	1.171E+01	2.728E+00	-1.805E-01	3.358E+00	-8.747E-01	2.596E+00	-9.770E-01	2.139E+02	1.176E+02	6.382E+02	4.413E+03
38.15	1.440E+01	4.979E+03	1.172E+01	2.824E+00	-1.973E-01	3.433E+00	-9.190E-01	2.660E+00	-9.557E-01	2.262E+02	1.176E+02	6.296E+02	4.422E+03
38.20	1.458E+01	4.986E+03	1.173E+01	2.923E+00	-2.152E-01	3.519E+00	-9.671E-01	2.700E+00	-9.228E-01	2.286E+02	1.188E+02	6.171E+02	4.420E+03
38.25	1.479E+01	4.991E+03	1.174E+01	3.027E+00	-2.361E-01	3.622E+00	-1.021E+00	2.722E+00	-8.801E-01	2.308E+02	1.175E+02	6.052E+02	4.408E+03
38.30	1.462E+01	4.996E+03	1.175E+01	3.138E+00	-2.620E-01	3.743E+00	-1.080E+00	2.736E+00	-8.343E-01	2.289E+02	1.188E+02	5.967E+02	4.386E+03
38.35	1.455E+01	4.999E+03	1.175E+01	3.250E+00	-2.925E-01	3.873E+00	-1.144E+00	2.750E+00	-7.921E-01	2.242E+02	1.188E+02	5.843E+02	4.351E+03
38.40	1.488E+01	5.000E+03	1.175E+01	3.348E+00	-3.236E-01	4.006E+00	-1.209E+00	2.767E+00	-7.565E-01	2.193E+02	1.208E+02	5.733E+02	4.312E+03
38.45	1.486E+01	5.000E+03	1.177E+01	3.412E+00	-3.466E-01	4.134E+00	-1.271E+00	2.791E+00	-7.265E-01	2.182E+02	1.212E+02	5.639E+02	4.310E+03
38.50	1.447E+01	5.001E+03	1.178E+01	3.437E+00	-3.555E-01	4.247E+00	-1.325E+00	2.825E+00	-7.019E-01	2.207E+02	1.188E+02	5.527E+02	4.357E+03
38.55	1.429E+01	5.005E+03	1.179E+01	3.425E+00	-3.518E-01	4.340E+00	-1.369E+00	2.863E+00	-6.819E-01	2.254E+02	1.146E+02	5.420E+02	4.428E+03
38.60	1.432E+01	5.011E+03	1.180E+01	3.391E+00	-3.415E-01	4.416E+00	-1.405E+00	2.901E+00	-6.672E-01	2.337E+02	1.115E+02	5.343E+02	4.485E+03
38.65	1.402E+01	5.018E+03	1.181E+01	3.351E+00	-3.294E-01	4.479E+00	-1.436E+00	2.935E+00	-6.579E-01	2.349E+02	1.094E+02	5.244E+02	4.511E+03
38.70	1.392E+01	5.025E+03	1.182E+01	3.311E+00	-3.182E-01	4.525E+00	-1.459E+00	2.959E+00	-6.511E-01	2.329E+02	1.070E+02	5.135E+02	4.504E+03
38.75	1.390E+01	5.031E+03	1.184E+01	3.267E+00	-3.083E-01	4.550E+00	-1.473E+00	2.966E+00	-6.413E-01	2.305E+02	1.052E+02	5.060E+02	4.474E+03
38.80	1.395E+01	5.035E+03	1.185E+01	3.219E+00	-3.001E-01	4.559E+00	-1.477E+00	2.946E+00	-6.229E-01	2.272E+02	1.019E+02	4.981E+02	4.433E+03
38.85	1.401E+01	5.036E+03	1.186E+01	3.173E+00	-2.971E-01	4.550E+00	-1.476E+00	2.895E+00	-5.943E-01	2.200E+02	9.611E+01	4.889E+02	4.378E+03
38.90	1.397E+01	5.036E+03	1.186E+01	3.130E+00	-3.045E-01	4.524E+00	-1.472E+00	2.821E+00	-5.581E-01	2.163E+02	9.137E+01	4.833E+02	4.305E+03
38.95	1.398E+01	5.033E+03	1.187E+01	3.098E+00	-3.229E-01	4.475E+00	-1.465E+00	2.741E+00	-5.170E-01	2.134E+02	8.415E+01	4.779E+02	4.258E+03
39.00	1.425E+01	5.029E+03	1.188E+01	3.082E+00	-3.516E-01	4.394E+00	-1.452E+00	2.662E+00	-4.733E-01	2.102E+02	7.491E+01	4.722E+02	4.255E+03
39.05	1.418E+01	5.026E+03	1.188E+01	3.080E+00	-3.888E-01	4.278E+00	-1.432E+00	2.593E+00	-4.295E-01	2.077E+02	6.424E+01	4.663E+02	4.290E+03
39.10	1.415E+01	5.025E+03	1.189E+01	3.090E+00	-4.321E-01	4.129E+00	-1.404E+00	2.543E+00	-3.882E-01	2.104E+02	5.466E+01	4.614E+02	4.337E+03
39.15	1.392E+01	5.027E+03	1.189E+01	3.117E+00	-4.791E-01	3.958E+00	-1.370E+00	2.519E+00	-3.501E-01	2.160E+02	4.280E+01	4.557E+02	4.388E+03
39.20	1.361E+01	5.030E+03	1.190E+01	3.171E+00	-5.294E-01	3.791E+00	-1.332E+00	2.521E+00	-3.152E-01	2.240E+02	2.987E+01	4.507E+02	4.434E+03
39.25	1.337E+01	5.034E+03	1.192E+01	3.253E+00	-5.825E-01	3.645E+00	-1.295E+00	2.545E+00	-2.841E-01	2.314E+02	1.788E+01	4.468E+02	4.462E+03
39.30	1.335E+01	5.039E+03	1.193E+01	3.358E+00	-6.368E-01	3.530E+00	-1.262E+00	2.581E+00	-2.574E-01	2.374E+02	5.196E+00	4.423E+02	4.463E+03
39.35	1.326E+01	5.043E+03	1.194E+01	3.477E+00	-6.914E-01	3.452E+00	-1.235E+00	2.617E+00	-2.350E-01	2.443E+02	-5.815E+00	4.383E+02	4.429E+03
39.40	1.323E+01	5.045E+03	1.195E+01	3.602E+00	-7.435E-01	3.402E+00	-1.213E+00	2.648E+00	-2.166E-01	2.481E+02	-1.517E+01	4.341E+02	4.377E+03
39.45	1.339E+01	5.045E+03	1.196E+01	3.723E+00	-7.913E-01	3.362E+00	-1.193E+00	2.684E+00	-2.037E-01	2.483E+02	-2.340E+01	4.298E+02	4.321E+03
39.50	1.322E+01	5.043E+03	1.197E+01	3.834E+00	-8.341E-01	3.325E+00	-1.172E+00	2.733E+00	-1.967E-01	2.532E+02	-3.489E+01	4.263E+02	4.286E+03
39.55	1.320E+01	5.040E+03	1.197E+01	3.934E+00	-8.740E-01	3.299E+00	-1.153E+00	2.800E+00	-1.971E-01	2.546E+02	-4.552E+01	4.248E+02	4.269E+03
39.60	1.328E+01	5.037E+03	1.197E+01	4.021E+00	-9.150E-01	3.288E+00	-1.139E+00	2.878E+00	-2.067E-01	2.550E+02	-5.345E+01	4.247E+02	4.258E+03
39.65	1.340E+01	5.035E+03	1.198E+01	4.094E+00	-9.565E-01	3.296E+00	-1.131E+00	2.958E+00	-2.226E-01	2.539E+02	-6.325E+01	4.256E+02	4.270E+03
39.70	1.381E+01	5.034E+03	1.199E+01	4.154E+00	-9.972E-01	3.317E+00	-1.126E+00	3.024E+00	-2.397E-01	2.546E+02	-7.299E+01	4.266E+02	4.311E+03
39.75	1.420E+01	5.035E+03	1.200E+01	4.200E+00	-1.034E+00	3.340E+00	-1.116E+00	3.070E+00	-2.531E-01	2.483E+02	-7.970E+01	4.273E+02	4.378E+03
39.80	1.434E+01	5.038E+03	1.201E+01	4.231E+00	-1.066E+00	3.343E+00	-1.099E+00	3.103E+00	-2.609E-01	2.429E+02	-8.830E+01	4.285E+02	4.441E+03
39.85	1.416E+01	5.044E+03	1.202E+01	4.247E+00	-1.095E+00	3.326E+00	-1.074E+00	3.135E+00	-2.646E-01	2.378E+02	-9.891E+01	4.312E+02	4.468E+03
39.90	1.449E+01	5.049E+03	1.203E+01	4.254E+00	-1.122E+00	3.302E+00	-1.043E+00	3.176E+00	-2.677E-01	2.342E+02	-1.081E+02	4.349E+02	4.444E+03
39.95	1.469E+01	5.052E+03	1.204E+01	4.255E+00	-1.150E+00	3.278E+00	-1.010E+00	3.233E+00	-2.724E-01	2.293E+02	-1.172E+02	4.401E+02	4.385E+03
40.00	1.473E+01	5.052E+03	1.206E+01	4.253E+00	-1.179E+00	3.262E+00	-9.768E-01	3.304E+00	-2.803E-01	2.295E+02	-1.274E+02	4.470E+02	4.317E+03
40.05	1.478E+01	5.050E+03	1.207E+01	4.253E+00	-1.209E+00	3.259E+00	-9.465E-01	3.377E+00	-2.902E-01	2.337E+02	-1.383E+02	4.531E+02	4.263E+03
40.10	1.467E+01	5.047E+03	1.207E+01	4.262E+00	-1.241E+00	3.258E+00	-9.186E-01	3.434E+00	-2.986E-01	2.364E+02	-1.486E+02	4.601E+02	4.231E+03
40.15	1.479E+01	5.044E+03	1.208E+01	4.281E+00	-1.276E+00	3.255E+00	-8.919E-01	3.460E+00	-3.028E-01	2.397E+02	-1.586E+02	4.676E+02	4.227E+03
40.20	1.479E+01	5.041E+03	1.209E+01	4.306E+00	-1.308E+00	3.251E+00	-8.646E-01	3.455E+00	-3.013E-01	2.439E+02	-1.695E+02	4.738E+02	4.262E+03
40.25	1.452E+01	5.041E+03	1.210E+01	4.329E+00	-1.337E+00	3.246E+00	-8.358E-01	3.430E+00	-2.967E-01	2.435E+02	-1.788E+02	4.814E+02	4.332E+03
40.30	1.465E+01	5.043E+03	1.211E+01	4.355E+00	-1.365E+00	3.245E+00	-8.086E-01	3.405E+00	-2.956E-01	2.441E+02	-1.873E+02	4.901E+02	4.397E+03
40.35	1.496E+01	5.048E+03	1.212E+01	4.385E+00	-1.395E+00	3.261E+00	-7.868E-01	3.390E+00	-3.027E-01	2.465E+02	-1.950E+02	4.989E+02	4.427E+03
40.40	1.465E+01	5.053E+03	1.214E+01	4.405E+00	-1.422E+00	3.292E+00	-7.680E-01	3.388E+00	-3.170E-01	2.481E+02	-2.025E+02	5.081E+02	4.428E+03
40.45	1.454E+01	5.056E+03	1.215E+01	4.401E+00	-1.439E+00	3.320E+00	-7.470E-01	3.395E+00	-3.364E-01	2.494E+02	-2.094E+02	5.179E+02	4.395E+03
40.50	1.452E+01	5.058E+03	1.216E+01	4.373E+00	-1.447E+00	3.324E+00	-7.183E-01	3.399E+00	-3.579E-01	2.470E+02	-2.135E+02	5.281E+02	4.330E+03
40.55	1.482E+01	5.057E+03	1.217E+01	4.327E+00	-1.446E+00	3.292E+00	-6.798E-01	3.390E+00	-3.790E-01	2.447E+02	-2.170E+02	5.387E+02	4.254E+03
40.60	1.485E+01	5.054E+03	1.217E+01	4.269E+00	-1.439E+00	3.228E+00	-6.327E-01	3.363E+00	-3.988E-01	2.399E+02	-2.196E+02	5.498E+02	4.192E+03
40.65	1.506E+01	5.049E+03	1.218E+01	4.203E+00	-1.427E+00	3.132E+00	-5.779E-01	3.323E+00	-4.178E-01	2.336E+02	-2.211E+02	5.611E+02	4.177E+03
40.70	1.513E+01	5.045E+03	1.219E+01	4.126E+00	-1.412E+00	3.013E+00	-5.189E-01	3.282E+00	-4.391E-01	2.293E+02	-2.231E+02	5.718E+02	4.195E+03
40.75	1.558E+01	5.043E+03	1.219E+01	4.034E+00	-1.394E+00	2.882E+00	-4.602E-01	3.254E+00	-4.655E-01	2.248E+02	-2.235E+02	5.845E+02	4.227E+03
40.80	1.568E+01	5.042E+03	1.220E+01	3.921E+00	-1.371E+00	2.756E+00	-4.052E-01	3.251E+00	-4.990E-01	2.223E+02	-2.245E+02	5.960E+02	4.255E+03
40.85	1.588E+01	5.041E+03	1.220E+01	3.792E+00	-1.343E+00	2.648E+00	-3.565E-01	3.280E+00	-5.400E-01	2.213E+02	-2.253E+02	6.083E+02	4.272E+03
40.90	1.589E+01	5.042E+03	1.221E+01	3.671E+00	-1.317E+00	2.568E+00	-3.150E-01	3.339E+00	-5.873E-01	2.204E+02	-2.243E+02	6.222E+02	4.278E+03
40.95	1.553E+01	5.043E+03	1.222E+01	3.586E+00	-1.298E+00	2.520E+00	-2.803E-01	3.413E+00	-6.372E-01	2.252E+02	-2.258E+02	6.353E+02	4.290E+03
41.00	1.535E+01	5.044E+03	1.223E+01	3.546E+00	-1.288E+00	2.496E+00	-2.489E-01	3.492E+00	-6.862E-01	2.281E+02	-2.259E+02	6.498E+02	4.308E+03
41.05	1.532E+01	5.046E+03	1.224E+01	3.543E+00	-1.287E+00	2.469E+00	-2.174E-01	3.572E+00	-7.352E-01	2.337E+02	-2.255E+02	6.624E+02	4.308E+03
41.10	1.535E+01	5.048E+03	1.226E+01	3.565E+00	-1.290E+00	2.430E+00	-1.826E-01	3.653E+00	-7.821E-01	2.351E+02	-2.218E+02	6.749E+02	4.309E+03
41.15	1.603E+01	5.050E+03	1.227E+01	3.599E+00	-1.291E+00	2.391E+00	-1.461E-01	3.732E+00	-8.252E-01	2.356E+02	-2.190E+02	6.858E+02	4.319E+03
41.20	1.627E+01	5.052E+03	1.229E+01	3.633E+00	-1.289E+00	2.375E+00	-1.152E-01	3.812E+00	-8.661E-01	2.355E+02	-2.159E+02	6.969E+02	4.321E+03
41.25	1.648E+01	5.054E+03	1.229E+01	3.650E+00	-1.283E+00	2.393E+00	-9.511E-02	3.884E+00	-9.060E-01	2.397E+02	-2.119E+02	7.096E+02	4.301E+03
41.30	1.650E+01	5.055E+03	1.230E+01	3.649E+00	-1.271E+00	2.441E+00	-8.722E-02	3.940E+00	-9.447E-01	2.416E+02	-2.065E+02	7.202E+02	4.262E+03
41.35	1.636E+01	5.054E+03	1.232E+01	3.642E+00	-1.255E+00	2.515E+00	-9.084E-02	3.969E+00	-9.799E-01	2.416E+02	-1.994E+02	7.297E+02	4.231E+03
41.40	1.632E+01	5.053E+03	1.233E+01	3.638E+00	-1.237E+00	2.604E+00	-1.025E-01	3.966E+00	-1.009E+00	2.430E+02	-1.927E+02	7.394E+02	4.231E+03
41.45	1.623E+01	5.053E+03	1.234E+01	3.637E+00	-1.217E+00	2.687E+00	-1.190E-01	3.932E+00	-1.033E+00	2.373E+02	-1.832E+02	7.489E+02	4.238E+03
41.50	1.623E+01	5.052E+03	1.235E+01	3.633E+00	-1.194E+00	2.752E+00	-1.386E-01	3.875E+00	-1.053E+00	2.307E+02	-1.737E+02	7.563E+02	4.240E+03
41.55	1.615E+01	5.052E+03	1.236E+01	3.616E+00	-1.164E+00	2.808E+00	-1.601E-01	3.803E+00	-1.071E+00	2.205E+02	-1.610E+02	7.647E+02	4.250E+03
41.60	1.579E+01	5.053E+03	1.237E+01	3.572E+00	-1.125E+00	2.870E+00	-1.850E-01	3.721E+00	-1.085E+00	2.146E+02	-1.478E+02	7.734E+02	4.269E+03
41.65	1.571E+01	5.055E+03	1.239E+01	3.500E+00	-1.075E+00	2.945E+00	-2.140E-01	3.633E+00	-1.097E+00	2.126E+02	-1.371E+02	7.808E+02	4.288E+03
41.70	1.561E+01	5.057E+03	1.240E+01	3.403E+00	-1.018E+00	3.026E+00	-2.468E-01	3.556E+00	-1.110E+00	2.123E+02	-1.259E+02	7.868E+02	4.285E+03
41.75	1.593E+01	5.058E+03	1.241E+01	3.290E+00	-9.578E-01	3.097E+00	-2.777E-01	3.504E+00	-1.127E+00	2.160E+02	-1.133E+02	7.939E+02	4.271E+03
41.80	1.581E+01	5.059E+03	1.242E+01	3.178E+00	-8.966E-01	3.144E+00	-3.020E-01	3.477E+00	-1.145E+00	2.177E+02	-1.013E+02	8.004E+02	4.252E+03
41.85	1.587E+01	5.059E+03	1.243E+01	3.072E+00	-8.374E-01	3.164E+00	-3.189E-01	3.466E+00	-1.163E+00	2.138E+02	-9.142E+01	8.054E+02	4.227E+03
41.90	1.597E+01	5.058E+03	1.244E+01	2.979E+00	-7.844E-01	3.168E+00	-3.313E-01	3.468E+00	-1.182E+00	2.074E+02	-7.789E+01	8.108E+02	4.190E+03
41.95	1.592E+01	5.056E+03	1.244E+01	2.907E+00	-7.406E-01	3.166E+00	-3.435E-01	3.483E+00	-1.205E+00	1.954E+02	-6.327E+01	8.144E+02	4.138E+03
42.00	1.577E+01	5.052E+03	1.245E+01	2.856E+00	-7.049E-01	3.166E+00	-3.582E-01	3.505E+00	-1.231E+00	1.840E+02	-5.178E+01	8.163E+02	4.095E+03
42.05	1.607E+01	5.048E+03	1.245E+01	2.816E+00	-6.753E-01	3.179E+00	-3.761E-01	3.526E+00	-1.258E+00	1.745E+02	-3.765E+01	8.176E+02	4.082E+03
42.10	1.583E+01	5.044E+03	1.246E+01	2.780E+00	-6.476E-01	3.208E+00	-3.983E-01	3.546E+00	-1.284E+00	1.692E+02	-2.590E+01	8.181E+02	4.099E+03
42.15	1.579E+01	5.041E+03	1.246E+01	2.740E+00	-6.180E-01	3.241E+00	-4.218E-01	3.562E+00	-1.306E+00	1.641E+02	-1.535E+01	8.193E+02	4.138E+03
42.20	1.603E+01	5.040E+03	1.247E+01	2.686E+00	-5.833E-01	3.268E+00	-4.430E-01	3.565E+00	-1.321E+00	1.653E+02	-3.722E+00	8.200E+02	4.185E+03
42.25	1.590E+01	5.042E+03	1.248E+01	2.613E+00	-5.411E-01	3.286E+00	-4.631E-01	3.563E+00	-1.332E+00	1.719E+02	6.268E+00	8.196E+02	4.218E+03
42.30	1.548E+01	5.044E+03	1.249E+01	2.528E+00	-4.924E-01	3.301E+00	-4.846E-01	3.566E+00	-1.342E+00	1.827E+02	1.450E+01	8.187E+02	4.232E+03
42.35	1.520E+01	5.046E+03	1.250E+01	2.447E+00	-4.399E-01	3.316E+00	-5.066E-01	3.570E+00	-1.349E+00	1.905E+02	2.320E+01	8.159E+02	4.240E+03
42.40	1.500E+01	5.048E+03	1.251E+01	2.376E+00	-3.875E-01	3.332E+00	-5.314E-01	3.568E+00	-1.354E+00	1.920E+02	3.335E+01	8.116E+02	4.221E+03
42.45	1.467E+01	5.049E+03	1.251E+01	2.314E+00	-3.375E-01	3.355E+00	-5.626E-01	3.555E+00	-1.357E+00	1.875E+02	4.478E+01	8.071E+02	4.161E+03
42.50	1.479E+01	5.047E+03	1.251E+01	2.255E+00	-2.905E-01	3.395E+00	-6.028E-01	3.534E+00	-1.358E+00	1.800E+02	5.765E+01	8.018E+02	4.079E+03
42.55	1.484E+01	5.042E+03	1.252E+01	2.191E+00	-2.441E-01	3.453E+00	-6.507E-01	3.515E+00	-1.359E+00	1.724E+02	6.985E+01	7.961E+02	4.022E+03
42.60	1.468E+01	5.037E+03	1.253E+01	2.119E+00	-1.961E-01	3.520E+00	-7.022E-01	3.507E+00	-1.360E+00	1.635E+02	8.094E+01	7.902E+02	4.025E+03
42.65	1.461E+01	5.033E+03	1.253E+01	2.040E+00	-1.480E-01	3.584E+00	-7.544E-01	3.501E+00	-1.359E+00	1.558E+02	9.193E+01	7.858E+02	4.073E+03
42.70	1.459E+01	5.032E+03	1.254E+01	1.959E+00	-1.022E-01	3.628E+00	-8.032E-01	3.495E+00	-1.357E+00	1.493E+02	1.021E+02	7.800E+02	4.138E+03
42.75	1.497E+01	5.034E+03	1.254E+01	1.886E+00	-6.107E-02	3.636E+00	-8.453E-01	3.490E+00	-1.354E+00	1.463E+02	1.123E+02	7.740E+02	4.190E+03
42.80	1.539E+01	5.037E+03	1.256E+01	1.829E+00	-2.467E-02	3.610E+00	-8.781E-01	3.495E+00	-1.350E+00	1.470E+02	1.203E+02	7.683E+02	4.231E+03
42.85	1.545E+01	5.041E+03	1.257E+01	1.796E+00	6.741E-03	3.568E+00	-9.022E-01	3.521E+00	-1.343E+00	1.483E+02	1.260E+02	7.610E+02	4.262E+03
42.90	1.532E+01	5.045E+03	1.258E+01	1.796E+00	2.796E-02	3.522E+00	-9.220E-01	3.564E+00	-1.336E+00	1.467E+02	1.310E+02	7.530E+02	4.248E+03
42.95	1.533E+01	5.047E+03	1.257E+01	1.836E+00	3.145E-02	3.476E+00	-9.422E-01	3.605E+00	-1.328E+00	1.482E+02	1.350E+02	7.448E+02	4.155E+03
43.00	1.533E+01	5.045E+03	1.257E+01	1.910E+00	1.680E-02	3.428E+00	-9.633E-01	3.622E+00	-1.315E+00	1.485E+02	1.404E+02	7.366E+02	4.018E+03
43.05	1.531E+01	5.038E+03	1.258E+01	1.997E+00	-7.966E-03	3.373E+00	-9.822E-01	3.600E+00	-1.292E+00	1.508E+02	1.449E+02	7.271E+02	3.912E+03
43.10	1.527E+01	5.030E+03	1.258E+01	2.077E+00	-3.345E-02	3.313E+00	-9.963E-01	3.539E+00	-1.255E+00	1.563E+02	1.462E+02	7.183E+02	3.898E+03
43.15	1.516E+01	5.023E+03	1.259E+01	2.150E+00	-5.696E-02	3.256E+00	-1.008E+00	3.442E+00	-1.202E+00	1.646E+02	1.430E+02	7.084E+02	3.965E+03
43.20	1.526E+01	5.020E+03	1.258E+01	2.222E+00	-8.273E-02	3.206E+00	-1.022E+00	3.310E+00	-1.140E+00	1.713E+02	1.400E+02	6.973E+02	4.041E+03
43.25	1.501E+01	5.020E+03	1.257E+01	2.298E+00	-1.137E-01	3.157E+00	-1.038E+00	3.155E+00	-1.073E+00	1.769E+02	1.379E+02	6.843E+02	4.084E+03
43.30	1.465E+01	5.020E+03	1.258E+01	2.379E+00	-1.482E-01	3.111E+00	-1.055E+00	2.995E+00	-1.005E+00	1.818E+02	1.361E+02	6.722E+02	4.113E+03
43.35	1.475E+01	5.022E+03	1.259E+01	2.469E+00	-1.836E-01	3.073E+00	-1.069E+00	2.845E+00	-9.383E-01	1.840E+02	1.333E+02	6.617E+02	4.145E+03
43.40	1.468E+01	5.025E+03	1.259E+01	2.568E+00	-2.205E-01	3.042E+00	-1.085E+00	2.710E+00	-8.759E-01	1.796E+02	1.314E+02	6.492E+02	4.142E+03
43.45	1.425E+01	5.026E+03	1.258E+01	2.667E+00	-2.580E-01	3.026E+00	-1.107E+00	2.590E+00	-8.192E-01	1.751E+02	1.306E+02	6.361E+02	4.077E+03
43.50	1.437E+01	5.023E+03	1.258E+01	2.750E+00	-2.907E-01	3.038E+00	-1.138E+00	2.475E+00	-7.638E-01	1.711E+02	1.291E+02	6.240E+02	3.984E+03
43.55	1.462E+01	5.018E+03	1.258E+01	2.809E+00	-3.151E-01	3.081E+00	-1.176E+00	2.361E+00	-7.057E-01	1.752E+02	1.249E+02	6.137E+02	3.914E+03
43.60	1.446E+01	5.012E+03	1.258E+01	2.855E+00	-3.325E-01	3.138E+00	-1.214E+00	2.247E+00	-6.443E-01	1.811E+02	1.191E+02	6.040E+02	3.909E+03
43.65	1.426E+01	5.008E+03	1.258E+01	2.906E+00	-3.504E-01	3.191E+00	-1.249E+00	2.141E+00	-5.836E-01	1.892E+02	1.115E+02	5.937E+02	3.952E+03
43.70	1.400E+01	5.005E+03	1.257E+01	2.967E+00	-3.743E-01	3.226E+00	-1.281E+00	2.043E+00	-5.266E-01	1.918E+02	1.069E+02	5.838E+02	4.001E+03
43.75	1.380E+01	5.004E+03	1.257E+01	3.022E+00	-4.014E-01	3.235E+00	-1.307E+00	1.950E+00	-4.730E-01	1.883E+02	1.017E+02	5.712E+02	4.036E+03
43.80	1.390E+01	5.005E+03	1.257E+01	3.056E+00	-4.275E-01	3.221E+00	-1.326E+00	1.866E+00	-4.210E-01	1.875E+02	9.645E+01	5.615E+02	4.051E+03
43.85	1.402E+01	5.005E+03	1.257E+01	3.066E+00	-4.498E-01	3.192E+00	-1.337E+00	1.795E+00	-3.689E-01	1.854E+02	8.993E+01	5.534E+02	4.066E+03
43.90	1.383E+01	5.007E+03	1.257E+01	3.057E+00	-4.692E-01	3.156E+00	-1.340E+00	1.732E+00	-3.163E-01	1.846E+02	7.883E+01	5.444E+02	4.075E+03
43.95	1.317E+01	5.008E+03	1.257E+01	3.038E+00	-4.904E-01	3.124E+00	-1.339E+00	1.666E+00	-2.626E-01	1.871E+02	6.871E+01	5.381E+02	4.065E+03
44.00	1.312E+01	5.008E+03	1.257E+01	3.029E+00	-5.199E-01	3.100E+00	-1.336E+00	1.587E+00	-2.074E-01	1.893E+02	5.801E+01	5.322E+02	4.035E+03
44.05	1.305E+01	5.007E+03	1.257E+01	3.049E+00	-5.634E-01	3.075E+00	-1.330E+00	1.488E+00	-1.509E-01	1.944E+02	4.742E+01	5.272E+02	3.998E+03
44.10	1.323E+01	5.005E+03	1.257E+01	3.102E+00	-6.197E-01	3.039E+00	-1.317E+00	1.377E+00	-9.324E-02	1.975E+02	3.644E+01	5.222E+02	3.979E+03
44.15	1.329E+01	5.003E+03	1.258E+01	3.177E+00	-6.818E-01	2.987E+00	-1.296E+00	1.260E+00	-3.453E-02	2.001E+02	2.219E+01	5.163E+02	3.997E+03
44.20	1.345E+01	5.002E+03	1.257E+01	3.254E+00	-7.437E-01	2.927E+00	-1.268E+00	1.145E+00	2.385E-02	2.010E+02	7.320E+00	5.114E+02	4.032E+03
44.25	1.314E+01	5.003E+03	1.257E+01	3.324E+00	-8.034E-01	2.870E+00	-1.240E+00	1.040E+00	7.687E-02	2.016E+02	-3.739E+00	5.078E+02	4.051E+03
44.30	1.304E+01	5.003E+03	1.257E+01	3.383E+00	-8.584E-01	2.825E+00	-1.216E+00	9.555E-01	1.211E-01	1.991E+02	-1.687E+01	5.032E+02	4.051E+03
44.35	1.297E+01	5.004E+03	1.257E+01	3.427E+00	-9.077E-01	2.799E+00	-1.197E+00	8.947E-01	1.554E-01	2.001E+02	-3.009E+01	4.990E+02	4.039E+03
44.40	1.302E+01	5.004E+03	1.257E+01	3.448E+00	-9.502E-01	2.792E+00	-1.183E+00	8.547E-01	1.810E-01	2.023E+02	-4.146E+01	4.956E+02	4.017E+03
44.45	1.287E+01	5.003E+03	1.257E+01	3.441E+00	-9.830E-01	2.794E+00	-1.173E+00	8.334E-01	2.004E-01	2.064E+02	-5.517E+01	4.929E+02	3.998E+03
44.50	1.281E+01	5.001E+03	1.256E+01	3.405E+00	-1.005E+00	2.791E+00	-1.161E+00	8.345E-01	2.142E-01	2.070E+02	-6.781E+01	4.920E+02	3.981E+03
44.55	1.285E+01	4.999E+03	1.256E+01	3.345E+00	-1.019E+00	2.778E+00	-1.144E+00	8.665E-01	2.188E-01	2.075E+02	-7.688E+01	4.927E+02	3.964E+03
44.60	1.297E+01	4.997E+03	1.256E+01	3.271E+00	-1.025E+00	2.746E+00	-1.120E+00	9.357E-01	2.127E-01	2.067E+02	-8.799E+01	4.941E+02	3.961E+03
44.65	1.285E+01	4.995E+03	1.255E+01	3.193E+00	-1.027E+00	2.690E+00	-1.088E+00	1.037E+00	1.950E-01	2.048E+02	-1.011E+02	4.961E+02	3.965E+03
44.70	1.295E+01	4.993E+03	1.254E+01	3.115E+00	-1.030E+00	2.609E+00	-1.049E+00	1.156E+00	1.658E-01	1.968E+02	-1.100E+02	4.974E+02	3.963E+03
44.75	1.300E+01	4.991E+03	1.253E+01	3.035E+00	-1.034E+00	2.511E+00	-1.006E+00	1.284E+00	1.273E-01	1.846E+02	-1.168E+02	4.995E+02	3.943E+03
44.80	1.338E+01	4.988E+03	1.253E+01	2.945E+00	-1.038E+00	2.402E+00	-9.594E-01	1.406E+00	8.535E-02	1.748E+02	-1.242E+02	5.042E+02	3.922E+03
44.85	1.365E+01	4.985E+03	1.252E+01	2.858E+00	-1.042E+00	2.291E+00	-9.066E-01	1.508E+00	4.707E-02	1.692E+02	-1.325E+02	5.089E+02	3.924E+03
44.90	1.396E+01	4.983E+03	1.252E+01	2.787E+00	-1.049E+00	2.183E+00	-8.484E-01	1.583E+00	1.656E-02	1.651E+02	-1.412E+02	5.148E+02	3.946E+03
44.95	1.399E+01	4.982E+03	1.251E+01	2.734E+00	-1.059E+00	2.086E+00	-7.887E-01	1.631E+00	-5.626E-03	1.633E+02	-1.510E+02	5.230E+02	3.972E+03
45.00	1.405E+01	4.981E+03	1.250E+01	2.700E+00	-1.075E+00	2.006E+00	-7.312E-01	1.654E+00	-2.228E-02	1.669E+02	-1.617E+02	5.299E+02	3.979E+03
45.05	1.403E+01	4.980E+03	1.249E+01	2.681E+00	-1.097E+00	1.933E+00	-6.760E-01	1.667E+00	-3.729E-02	1.697E+02	-1.719E+02	5.365E+02	3.967E+03
45.10	1.413E+01	4.979E+03	1.248E+01	2.678E+00	-1.124E+00	1.851E+00	-6.209E-01	1.686E+00	-5.491E-02	1.744E+02	-1.815E+02	5.445E+02	3.933E+03
45.15	1.424E+01	4.976E+03	1.247E+01	2.698E+00	-1.160E+00	1.753E+00	-5.628E-01	1.720E+00	-7.700E-02	1.794E+02	-1.900E+02	5.513E+02	3.890E+03
45.20	1.419E+01	4.972E+03	1.246E+01	2.739E+00	-1.198E+00	1.635E+00	-4.990E-01	1.768E+00	-1.018E-01	1.834E+02	-1.983E+02	5.575E+02	3.862E+03
45.25	1.431E+01	4.967E+03	1.244E+01	2.778E+00	-1.233E+00	1.505E+00	-4.300E-01	1.827E+00	-1.267E-01	1.851E+02	-2.065E+02	5.654E+02	3.864E+03
45.30	1.447E+01	4.964E+03	1.243E+01	2.793E+00	-1.256E+00	1.375E+00	-3.600E-01	1.891E+00	-1.523E-01	1.837E+02	-2.136E+02	5.726E+02	3.884E+03
45.35	1.479E+01	4.961E+03	1.242E+01	2.776E+00	-1.268E+00	1.253E+00	-2.941E-01	1.957E+00	-1.809E-01	1.798E+02	-2.190E+02	5.784E+02	3.905E+03
45.40	1.507E+01	4.959E+03	1.241E+01	2.740E+00	-1.272E+00	1.148E+00	-2.349E-01	2.028E+00	-2.135E-01	1.765E+02	-2.237E+02	5.867E+02	3.932E+03
45.45	1.537E+01	4.959E+03	1.240E+01	2.705E+00	-1.272E+00	1.066E+00	-1.839E-01	2.102E+00	-2.507E-01	1.751E+02	-2.281E+02	5.949E+02	3.958E+03
45.50	1.563E+01	4.959E+03	1.238E+01	2.684E+00	-1.273E+00	1.012E+00	-1.418E-01	2.178E+00	-2.927E-01	1.760E+02	-2.319E+02	6.037E+02	3.970E+03
45.55	1.560E+01	4.958E+03	1.237E+01	2.680E+00	-1.275E+00	9.824E-01	-1.074E-01	2.258E+00	-3.397E-01	1.692E+02	-2.293E+02	6.140E+02	3.959E+03
45.60	1.605E+01	4.958E+03	1.236E+01	2.680E+00	-1.274E+00	9.664E-01	-7.697E-02	2.350E+00	-3.936E-01	1.642E+02	-2.285E+02	6.210E+02	3.938E+03
45.65	1.633E+01	4.956E+03	1.236E+01	2.668E+00	-1.265E+00	9.492E-01	-4.568E-02	2.463E+00	-4.542E-01	1.696E+02	-2.296E+02	6.315E+02	3.940E+03
45.70	1.641E+01	4.956E+03	1.235E+01	2.646E+00	-1.248E+00	9.236E-01	-9.993E-03	2.591E+00	-5.189E-01	1.774E+02	-2.301E+02	6.446E+02	3.978E+03
45.75	1.617E+01	4.957E+03	1.235E+01	2.626E+00	-1.228E+00	8.884E-01	2.885E-02	2.715E+00	-5.852E-01	1.836E+02	-2.311E+02	6.528E+02	4.019E+03
45.80	1.622E+01	4.959E+03	1.234E+01	2.616E+00	-1.211E+00	8.451E-01	6.860E-02	2.818E+00	-6.488E-01	1.863E+02	-2.287E+02	6.626E+02	4.041E+03
45.85	1.606E+01	4.961E+03	1.233E+01	2.621E+00	-1.200E+00	7.969E-01	1.081E-01	2.893E+00	-7.074E-01	1.881E+02	-2.236E+02	6.738E+02	4.038E+03
45.90	1.622E+01	4.962E+03	1.233E+01	2.632E+00	-1.191E+00	7.514E-01	1.473E-01	2.952E+00	-7.610E-01	1.874E+02	-2.197E+02	6.823E+02	4.034E+03
45.95	1.626E+01	4.964E+03	1.233E+01	2.637E+00	-1.178E+00	7.218E-01	1.851E-01	3.010E+00	-8.098E-01	1.850E+02	-2.176E+02	6.919E+02	4.055E+03
46.00	1.631E+01	4.966E+03	1.232E+01	2.635E+00	-1.165E+00	7.168E-01	2.151E-01	3.072E+00	-8.585E-01	1.750E+02	-2.120E+02	7.023E+02	4.047E+03
46.05	1.608E+01	4.966E+03	1.230E+01	2.625E+00	-1.155E+00	7.349E-01	2.309E-01	3.125E+00	-9.091E-01	1.639E+02	-2.047E+02	7.098E+02	3.974E+03
46.10	1.574E+01	4.963E+03	1.229E+01	2.605E+00	-1.145E+00	7.722E-01	2.347E-01	3.160E+00	-9.557E-01	1.602E+02	-1.979E+02	7.190E+02	3.899E+03
46.15	1.553E+01	4.959E+03	1.229E+01	2.570E+00	-1.129E+00	8.244E-01	2.323E-01	3.171E+00	-9.914E-01	1.569E+02	-1.893E+02	7.298E+02	3.898E+03
46.20	1.553E+01	4.956E+03	1.229E+01	2.512E+00	-1.099E+00	8.883E-01	2.264E-01	3.155E+00	-1.012E+00	1.551E+02	-1.845E+02	7.376E+02	3.970E+03
46.25	1.556E+01	4.957E+03	1.228E+01	2.435E+00	-1.061E+00	9.634E-01	2.151E-01	3.108E+00	-1.020E+00	1.571E+02	-1.811E+02	7.450E+02	4.050E+03
46.30	1.576E+01	4.959E+03	1.226E+01	2.347E+00	-1.019E+00	1.047E+00	1.953E-01	3.038E+00	-1.021E+00	1.567E+02	-1.724E+02	7.532E+02	4.073E+03
46.35	1.572E+01	4.961E+03	1.225E+01	2.252E+00	-9.728E-01	1.137E+00	1.673E-01	2.961E+00	-1.023E+00	1.555E+02	-1.618E+02	7.595E+02	4.041E+03
46.40	1.547E+01	4.961E+03	1.225E+01	2.151E+00	-9.197E-01	1.233E+00	1.352E-01	2.895E+00	-1.026E+00	1.511E+02	-1.517E+02	7.642E+02	4.022E+03
46.45	1.506E+01	4.962E+03	1.225E+01	2.049E+00	-8.603E-01	1.337E+00	1.013E-01	2.853E+00	-1.033E+00	1.427E+02	-1.399E+02	7.694E+02	4.032E+03
46.50	1.494E+01	4.962E+03	1.223E+01	1.947E+00	-7.986E-01	1.442E+00	6.410E-02	2.837E+00	-1.050E+00	1.319E+02	-1.270E+02	7.738E+02	4.022E+03
46.55	1.509E+01	4.961E+03	1.221E+01	1.838E+00	-7.361E-01	1.535E+00	2.437E-02	2.845E+00	-1.079E+00	1.219E+02	-1.141E+02	7.767E+02	3.958E+03
46.60	1.506E+01	4.957E+03	1.220E+01	1.710E+00	-6.701E-01	1.608E+00	-1.223E-02	2.876E+00	-1.117E+00	1.131E+02	-9.829E+01	7.812E+02	3.890E+03
46.65	1.473E+01	4.951E+03	1.219E+01	1.568E+00	-5.969E-01	1.662E+00	-4.094E-02	2.917E+00	-1.157E+00	1.048E+02	-8.341E+01	7.852E+02	3.882E+03
46.70	1.441E+01	4.947E+03	1.219E+01	1.423E+00	-5.190E-01	1.706E+00	-6.240E-02	2.949E+00	-1.192E+00	9.939E+01	-7.326E+01	7.879E+02	3.939E+03
46.75	1.457E+01	4.946E+03	1.217E+01	1.287E+00	-4.447E-01	1.748E+00	-8.176E-02	2.957E+00	-1.222E+00	9.264E+01	-6.118E+01	7.899E+02	4.001E+03
46.80	1.448E+01	4.946E+03	1.215E+01	1.165E+00	-3.795E-01	1.791E+00	-1.040E-01	2.938E+00	-1.249E+00	8.673E+01	-4.621E+01	7.913E+02	4.014E+03
46.85	1.436E+01	4.946E+03	1.214E+01	1.066E+00	-3.226E-01	1.839E+00	-1.271E-01	2.897E+00	-1.268E+00	8.486E+01	-3.229E+01	7.923E+02	4.010E+03
46.90	1.470E+01	4.946E+03	1.213E+01	9.975E-01	-2.727E-01	1.895E+00	-1.490E-01	2.854E+00	-1.280E+00	8.173E+01	-2.029E+01	7.926E+02	4.017E+03
46.95	1.478E+01	4.946E+03	1.212E+01	9.660E-01	-2.309E-01	1.953E+00	-1.687E-01	2.822E+00	-1.288E+00	8.137E+01	-1.014E+01	7.928E+02	4.029E+03
47.00	1.462E+01	4.946E+03	1.210E+01	9.652E-01	-1.984E-01	2.005E+00	-1.873E-01	2.806E+00	-1.294E+00	8.154E+01	5.899E-01	7.920E+02	4.018E+03
47.05	1.469E+01	4.945E+03	1.208E+01	9.833E-01	-1.751E-01	2.048E+00	-2.099E-01	2.817E+00	-1.307E+00	8.148E+01	1.287E+01	7.902E+02	3.968E+03
47.10	1.445E+01	4.942E+03	1.207E+01	1.011E+00	-1.567E-01	2.094E+00	-2.386E-01	2.859E+00	-1.324E+00	8.673E+01	2.340E+01	7.877E+02	3.933E+03
47.15	1.447E+01	4.938E+03	1.206E+01	1.047E+00	-1.401E-01	2.159E+00	-2.752E-01	2.918E+00	-1.341E+00	9.079E+01	3.151E+01	7.833E+02	3.947E+03
47.20	1.455E+01	4.936E+03	1.204E+01	1.089E+00	-1.269E-01	2.248E+00	-3.234E-01	2.976E+00	-1.353E+00	9.620E+01	3.966E+01	7.786E+02	3.980E+03
47.25	1.443E+01	4.935E+03	1.203E+01	1.132E+00	-1.164E-01	2.351E+00	-3.810E-01	3.006E+00	-1.355E+00	1.013E+02	4.869E+01	7.733E+02	4.013E+03
47.30	1.445E+01	4.935E+03	1.202E+01	1.173E+00	-1.057E-01	2.458E+00	-4.425E-01	2.998E+00	-1.343E+00	1.050E+02	5.917E+01	7.676E+02	4.054E+03
47.35	1.456E+01	4.937E+03	1.202E+01	1.208E+00	-9.034E-02	2.560E+00	-5.031E-01	2.966E+00	-1.320E+00	1.058E+02	7.099E+01	7.610E+02	4.116E+03
47.40	1.497E+01	4.942E+03	1.202E+01	1.234E+00	-6.718E-02	2.653E+00	-5.605E-01	2.935E+00	-1.292E+00	1.094E+02	7.908E+01	7.537E+02	4.194E+03
47.45	1.498E+01	4.948E+03	1.202E+01	1.250E+00	-3.823E-02	2.737E+00	-6.155E-01	2.914E+00	-1.265E+00	1.138E+02	8.624E+01	7.463E+02	4.249E+03
47.50	1.476E+01	4.955E+03	1.202E+01	1.265E+00	-8.211E-03	2.816E+00	-6.703E-01	2.901E+00	-1.243E+00	1.163E+02	9.578E+01	7.378E+02	4.259E+03
47.55	1.480E+01	4.961E+03	1.201E+01	1.287E+00	1.847E-02	2.898E+00	-7.267E-01	2.893E+00	-1.225E+00	1.190E+02	1.043E+02	7.287E+02	4.218E+03
47.60	1.465E+01	4.965E+03	1.201E+01	1.323E+00	3.866E-02	2.987E+00	-7.857E-01	2.881E+00	-1.208E+00	1.226E+02	1.122E+02	7.223E+02	4.147E+03
47.65	1.431E+01	4.965E+03	1.201E+01	1.379E+00	5.115E-02	3.083E+00	-8.447E-01	2.854E+00	-1.191E+00	1.240E+02	1.206E+02	7.146E+02	4.087E+03
47.70	1.426E+01	4.963E+03	1.200E+01	1.456E+00	5.523E-02	3.171E+00	-8.997E-01	2.802E+00	-1.169E+00	1.233E+02	1.276E+02	7.043E+02	4.060E+03
47.75	1.443E+01	4.961E+03	1.200E+01	1.546E+00	5.137E-02	3.239E+00	-9.489E-01	2.726E+00	-1.140E+00	1.225E+02	1.341E+02	6.956E+02	4.064E+03
47.80	1.427E+01	4.960E+03	1.199E+01	1.633E+00	4.181E-02	3.278E+00	-9.901E-01	2.623E+00	-1.105E+00	1.256E+02	1.383E+02	6.861E+02	4.093E+03
47.85	1.451E+01	4.961E+03	1.200E+01	1.708E+00	2.999E-02	3.283E+00	-1.020E+00	2.495E+00	-1.061E+00	1.324E+02	1.404E+02	6.754E+02	4.154E+03
47.90	1.447E+01	4.964E+03	1.200E+01	1.774E+00	1.618E-02	3.258E+00	-1.039E+00	2.351E+00	-1.007E+00	1.426E+02	1.399E+02	6.665E+02	4.232E+03
47.95	1.438E+01	4.969E+03	1.200E+01	1.842E+00	-1.459E-03	3.218E+00	-1.050E+00	2.207E+00	-9.469E-01	1.516E+02	1.391E+02	6.570E+02	4.300E+03
48.00	1.420E+01	4.976E+03	1.200E+01	1.920E+00	-2.470E-02	3.183E+00	-1.060E+00	2.078E+00	-8.852E-01	1.540E+02	1.391E+02	6.451E+02	4.323E+03
48.05	1.404E+01	4.982E+03	1.200E+01	2.005E+00	-5.455E-02	3.165E+00	-1.076E+00	1.960E+00	-8.222E-01	1.604E+02	1.368E+02	6.336E+02	4.279E+03
48.10	1.417E+01	4.985E+03	1.200E+01	2.094E+00	-8.833E-02	3.170E+00	-1.100E+00	1.841E+00	-7.543E-01	1.683E+02	1.334E+02	6.239E+02	4.201E+03
48.15	1.424E+01	4.985E+03	1.200E+01	2.179E+00	-1.221E-01	3.188E+00	-1.128E+00	1.711E+00	-6.803E-01	1.729E+02	1.303E+02	6.124E+02	4.137E+03
48.20	1.428E+01	4.983E+03	1.200E+01	2.250E+00	-1.522E-01	3.205E+00	-1.156E+00	1.569E+00	-6.011E-01	1.770E+02	1.240E+02	5.991E+02	4.104E+03
48.25	1.441E+01	4.981E+03	1.199E+01	2.293E+00	-1.765E-01	3.216E+00	-1.184E+00	1.418E+00	-5.203E-01	1.842E+02	1.194E+02	5.895E+02	4.097E+03
48.30	1.471E+01	4.978E+03	1.199E+01	2.307E+00	-1.923E-01	3.222E+00	-1.211E+00	1.271E+00	-4.427E-01	1.853E+02	1.145E+02	5.775E+02	4.117E+03
48.35	1.457E+01	4.977E+03	1.198E+01	2.302E+00	-2.029E-01	3.226E+00	-1.239E+00	1.141E+00	-3.740E-01	1.844E+02	1.079E+02	5.630E+02	4.137E+03
48.40	1.440E+01	4.976E+03	1.197E+01	2.287E+00	-2.133E-01	3.231E+00	-1.270E+00	1.039E+00	-3.181E-01	1.849E+02	1.052E+02	5.538E+02	4.133E+03
48.45	1.466E+01	4.975E+03	1.196E+01	2.274E+00	-2.247E-01	3.239E+00	-1.302E+00	9.698E-01	-2.757E-01	1.882E+02	1.012E+02	5.438E+02	4.130E+03
48.50	1.448E+01	4.974E+03	1.196E+01	2.265E+00	-2.346E-01	3.251E+00	-1.332E+00	9.276E-01	-2.424E-01	1.873E+02	9.662E+01	5.322E+02	4.156E+03
48.55	1.409E+01	4.975E+03	1.196E+01	2.261E+00	-2.441E-01	3.272E+00	-1.359E+00	9.058E-01	-2.149E-01	1.894E+02	9.172E+01	5.225E+02	4.186E+03
48.60	1.381E+01	4.976E+03	1.196E+01	2.269E+00	-2.547E-01	3.306E+00	-1.382E+00	9.030E-01	-1.914E-01	1.938E+02	8.764E+01	5.149E+02	4.205E+03
48.65	1.402E+01	4.978E+03	1.195E+01	2.304E+00	-2.694E-01	3.347E+00	-1.400E+00	9.219E-01	-1.726E-01	1.907E+02	8.230E+01	5.041E+02	4.204E+03
48.70	1.413E+01	4.978E+03	1.194E+01	2.365E+00	-2.919E-01	3.386E+00	-1.414E+00	9.596E-01	-1.589E-01	1.841E+02	7.779E+01	4.932E+02	4.166E+03
48.75	1.450E+01	4.977E+03	1.193E+01	2.441E+00	-3.212E-01	3.417E+00	-1.424E+00	1.010E+00	-1.486E-01	1.802E+02	7.511E+01	4.850E+02	4.116E+03
48.80	1.487E+01	4.975E+03	1.193E+01	2.516E+00	-3.516E-01	3.439E+00	-1.427E+00	1.069E+00	-1.386E-01	1.726E+02	7.147E+01	4.763E+02	4.104E+03
48.85	1.477E+01	4.972E+03	1.192E+01	2.583E+00	-3.830E-01	3.446E+00	-1.424E+00	1.141E+00	-1.297E-01	1.710E+02	6.235E+01	4.680E+02	4.118E+03
48.90	1.450E+01	4.971E+03	1.191E+01	2.642E+00	-4.193E-01	3.432E+00	-1.416E+00	1.225E+00	-1.247E-01	1.770E+02	5.704E+01	4.637E+02	4.125E+03
48.95	1.458E+01	4.970E+03	1.191E+01	2.702E+00	-4.592E-01	3.389E+00	-1.399E+00	1.322E+00	-1.224E-01	1.870E+02	4.596E+01	4.576E+02	4.149E+03
49.00	1.428E+01	4.970E+03	1.191E+01	2.771E+00	-5.029E-01	3.324E+00	-1.375E+00	1.427E+00	-1.203E-01	1.909E+02	3.358E+01	4.512E+02	4.189E+03
49.05	1.441E+01	4.971E+03	1.190E+01	2.852E+00	-5.536E-01	3.249E+00	-1.348E+00	1.533E+00	-1.192E-01	1.973E+02	2.270E+01	4.468E+02	4.215E+03
49.10	1.462E+01	4.973E+03	1.190E+01	2.940E+00	-6.097E-01	3.170E+00	-1.321E+00	1.635E+00	-1.191E-01	2.022E+02	1.055E+01	4.420E+02	4.230E+03
49.15	1.470E+01	4.975E+03	1.190E+01	3.030E+00	-6.685E-01	3.088E+00	-1.293E+00	1.726E+00	-1.184E-01	2.047E+02	-1.968E+00	4.369E+02	4.236E+03
49.20	1.444E+01	4.977E+03	1.190E+01	3.112E+00	-7.276E-01	3.000E+00	-1.262E+00	1.799E+00	-1.151E-01	2.063E+02	-1.093E+01	4.331E+02	4.233E+03
49.25	1.445E+01	4.979E+03	1.190E+01	3.188E+00	-7.827E-01	2.908E+00	-1.227E+00	1.850E+00	-1.065E-01	2.107E+02	-2.165E+01	4.295E+02	4.246E+03
49.30	1.468E+01	4.982E+03	1.191E+01	3.253E+00	-8.285E-01	2.815E+00	-1.186E+00	1.892E+00	-9.224E-02	2.119E+02	-3.502E+01	4.263E+02	4.291E+03
49.35	1.451E+01	4.986E+03	1.191E+01	3.302E+00	-8.653E-01	2.728E+00	-1.142E+00	1.940E+00	-7.961E-02	2.076E+02	-4.576E+01	4.244E+02	4.322E+03
49.40	1.422E+01	4.990E+03	1.190E+01	3.334E+00	-8.984E-01	2.653E+00	-1.103E+00	2.006E+00	-7.806E-02	2.043E+02	-5.534E+01	4.227E+02	4.285E+03
49.45	1.449E+01	4.991E+03	1.190E+01	3.345E+00	-9.277E-01	2.588E+00	-1.070E+00	2.084E+00	-8.757E-02	2.006E+02	-6.603E+01	4.212E+02	4.215E+03
49.50	1.455E+01	4.990E+03	1.190E+01	3.328E+00	-9.495E-01	2.537E+00	-1.041E+00	2.158E+00	-1.017E-01	1.939E+02	-7.340E+01	4.213E+02	4.163E+03
49.55	1.442E+01	4.987E+03	1.190E+01	3.277E+00	-9.616E-01	2.493E+00	-1.013E+00	2.218E+00	-1.158E-01	1.948E+02	-8.368E+01	4.219E+02	4.154E+03
49.60	1.430E+01	4.986E+03	1.190E+01	3.197E+00	-9.651E-01	2.447E+00	-9.828E-01	2.266E+00	-1.274E-01	1.993E+02	-9.756E+01	4.244E+02	4.179E+03
49.65	1.416E+01	4.985E+03	1.189E+01	3.111E+00	-9.674E-01	2.393E+00	-9.484E-01	2.301E+00	-1.374E-01	2.033E+02	-1.085E+02	4.282E+02	4.201E+03
49.70	1.431E+01	4.985E+03	1.189E+01	3.045E+00	-9.758E-01	2.318E+00	-9.059E-01	2.322E+00	-1.453E-01	2.084E+02	-1.181E+02	4.323E+02	4.222E+03
49.75	1.433E+01	4.986E+03	1.190E+01	3.020E+00	-9.943E-01	2.222E+00	-8.548E-01	2.334E+00	-1.495E-01	2.130E+02	-1.320E+02	4.381E+02	4.261E+03
49.80	1.417E+01	4.988E+03	1.190E+01	3.031E+00	-1.023E+00	2.113E+00	-7.972E-01	2.338E+00	-1.528E-01	2.093E+02	-1.416E+02	4.440E+02	4.302E+03
49.85	1.410E+01	4.992E+03	1.190E+01	3.061E+00	-1.057E+00	1.994E+00	-7.348E-01	2.341E+00	-1.581E-01	2.042E+02	-1.492E+02	4.464E+02	4.322E+03
49.90	1.435E+01	4.995E+03	1.190E+01	3.089E+00	-1.093E+00	1.858E+00	-6.684E-01	2.353E+00	-1.659E-01	2.022E+02	-1.591E+02	4.513E+02	4.313E+03
49.95	1.460E+01	4.998E+03	1.190E+01	3.112E+00	-1.129E+00	1.706E+00	-5.970E-01	2.379E+00	-1.763E-01	2.064E+02	-1.702E+02	4.590E+02	4.276E+03
50.00	1.427E+01	4.998E+03	1.190E+01	3.136E+00	-1.163E+00	1.563E+00	-5.230E-01	2.426E+00	-1.898E-01	2.100E+02	-1.802E+02	4.652E+02	4.236E+03
50.05	1.417E+01	4.997E+03	1.190E+01	3.167E+00	-1.198E+00	1.452E+00	-4.556E-01	2.497E+00	-2.089E-01	2.118E+02	-1.910E+02	4.735E+02	4.193E+03
50.10	1.427E+01	4.994E+03	1.189E+01	3.214E+00	-1.239E+00	1.380E+00	-4.020E-01	2.588E+00	-2.383E-01	2.178E+02	-2.005E+02	4.833E+02	4.137E+03
50.15	1.401E+01	4.990E+03	1.189E+01	3.282E+00	-1.285E+00	1.344E+00	-3.609E-01	2.680E+00	-2.748E-01	2.202E+02	-2.074E+02	4.904E+02	4.111E+03
50.20	1.417E+01	4.986E+03	1.189E+01	3.370E+00	-1.331E+00	1.334E+00	-3.272E-01	2.758E+00	-3.103E-01	2.244E+02	-2.152E+02	4.968E+02	4.159E+03
50.25	1.413E+01	4.986E+03	1.189E+01	3.469E+00	-1.373E+00	1.338E+00	-2.960E-01	2.816E+00	-3.409E-01	2.221E+02	-2.209E+02	5.050E+02	4.255E+03
50.30	1.403E+01	4.989E+03	1.189E+01	3.562E+00	-1.407E+00	1.350E+00	-2.668E-01	2.868E+00	-3.712E-01	2.200E+02	-2.256E+02	5.107E+02	4.331E+03
50.35	1.389E+01	4.993E+03	1.189E+01	3.627E+00	-1.429E+00	1.374E+00	-2.409E-01	2.929E+00	-4.036E-01	2.199E+02	-2.281E+02	5.199E+02	4.364E+03
50.40	1.396E+01	4.998E+03	1.190E+01	3.656E+00	-1.437E+00	1.420E+00	-2.209E-01	2.998E+00	-4.379E-01	2.223E+02	-2.293E+02	5.317E+02	4.361E+03
50.45	1.420E+01	5.002E+03	1.190E+01	3.649E+00	-1.431E+00	1.494E+00	-2.086E-01	3.063E+00	-4.719E-01	2.277E+02	-2.321E+02	5.417E+02	4.340E+03
50.50	1.450E+01	5.005E+03	1.191E+01	3.616E+00	-1.415E+00	1.586E+00	-2.037E-01	3.117E+00	-5.041E-01	2.353E+02	-2.364E+02	5.523E+02	4.311E+03
50.55	1.451E+01	5.006E+03	1.191E+01	3.568E+00	-1.394E+00	1.684E+00	-2.042E-01	3.157E+00	-5.368E-01	2.291E+02	-2.334E+02	5.646E+02	4.260E+03
50.60	1.484E+01	5.005E+03	1.190E+01	3.511E+00	-1.372E+00	1.777E+00	-2.081E-01	3.187E+00	-5.719E-01	2.243E+02	-2.335E+02	5.713E+02	4.193E+03
50.65	1.511E+01	5.002E+03	1.190E+01	3.438E+00	-1.346E+00	1.865E+00	-2.128E-01	3.211E+00	-6.061E-01	2.175E+02	-2.307E+02	5.837E+02	4.152E+03
50.70	1.519E+01	4.998E+03	1.191E+01	3.347E+00	-1.314E+00	1.952E+00	-2.167E-01	3.231E+00	-6.384E-01	2.113E+02	-2.273E+02	5.971E+02	4.163E+03
50.75	1.544E+01	4.996E+03	1.191E+01	3.244E+00	-1.278E+00	2.042E+00	-2.203E-01	3.252E+00	-6.693E-01	2.019E+02	-2.259E+02	6.071E+02	4.223E+03
50.80	1.559E+01	4.996E+03	1.191E+01	3.136E+00	-1.244E+00	2.131E+00	-2.267E-01	3.271E+00	-7.011E-01	1.945E+02	-2.221E+02	6.196E+02	4.284E+03
50.85	1.587E+01	4.999E+03	1.191E+01	3.028E+00	-1.215E+00	2.208E+00	-2.343E-01	3.284E+00	-7.344E-01	1.960E+02	-2.180E+02	6.331E+02	4.318E+03
50.90	1.591E+01	5.002E+03	1.192E+01	2.926E+00	-1.188E+00	2.267E+00	-2.356E-01	3.289E+00	-7.639E-01	2.006E+02	-2.173E+02	6.444E+02	4.362E+03
50.95	1.595E+01	5.007E+03	1.193E+01	2.833E+00	-1.158E+00	2.308E+00	-2.272E-01	3.288E+00	-7.873E-01	1.976E+02	-2.140E+02	6.558E+02	4.402E+03
51.00	1.582E+01	5.013E+03	1.193E+01	2.757E+00	-1.131E+00	2.330E+00	-2.112E-01	3.282E+00	-8.074E-01	2.025E+02	-2.121E+02	6.659E+02	4.394E+03
51.05	1.635E+01	5.017E+03	1.193E+01	2.700E+00	-1.107E+00	2.333E+00	-1.889E-01	3.272E+00	-8.247E-01	2.051E+02	-2.060E+02	6.782E+02	4.341E+03
51.10	1.644E+01	5.018E+03	1.194E+01	2.665E+00	-1.086E+00	2.313E+00	-1.610E-01	3.255E+00	-8.399E-01	2.076E+02	-2.032E+02	6.870E+02	4.270E+03
51.15	1.631E+01	5.016E+03	1.194E+01	2.653E+00	-1.069E+00	2.269E+00	-1.302E-01	3.226E+00	-8.540E-01	2.063E+02	-1.983E+02	6.959E+02	4.201E+03
51.20	1.624E+01	5.012E+03	1.194E+01	2.658E+00	-1.057E+00	2.205E+00	-9.965E-02	3.178E+00	-8.672E-01	2.022E+02	-1.902E+02	7.049E+02	4.148E+03
51.25	1.589E+01	5.007E+03	1.193E+01	2.670E+00	-1.046E+00	2.136E+00	-7.275E-02	3.109E+00	-8.790E-01	1.891E+02	-1.813E+02	7.109E+02	4.127E+03
51.30	1.580E+01	5.002E+03	1.193E+01	2.662E+00	-1.029E+00	2.080E+00	-5.353E-02	3.028E+00	-8.922E-01	1.806E+02	-1.707E+02	7.178E+02	4.129E+03
51.35	1.548E+01	4.998E+03	1.192E+01	2.619E+00	-1.000E+00	2.049E+00	-4.358E-02	2.959E+00	-9.109E-01	1.777E+02	-1.602E+02	7.248E+02	4.158E+03
51.40	1.563E+01	4.995E+03	1.192E+01	2.544E+00	-9.595E-01	2.047E+00	-4.452E-02	2.923E+00	-9.383E-01	1.745E+02	-1.519E+02	7.292E+02	4.197E+03
51.45	1.578E+01	4.995E+03	1.192E+01	2.440E+00	-9.088E-01	2.074E+00	-5.768E-02	2.926E+00	-9.756E-01	1.725E+02	-1.406E+02	7.342E+02	4.238E+03
51.50	1.576E+01	4.996E+03	1.192E+01	2.325E+00	-8.498E-01	2.131E+00	-7.966E-02	2.956E+00	-1.017E+00	1.710E+02	-1.301E+02	7.401E+02	4.296E+03
51.55	1.620E+01	4.999E+03	1.193E+01	2.209E+00	-7.849E-01	2.213E+00	-1.075E-01	2.997E+00	-1.057E+00	1.653E+02	-1.185E+02	7.457E+02	4.352E+03
51.60	1.632E+01	5.004E+03	1.192E+01	2.100E+00	-7.172E-01	2.313E+00	-1.397E-01	3.045E+00	-1.097E+00	1.566E+02	-1.055E+02	7.505E+02	4.361E+03
51.65	1.622E+01	5.007E+03	1.192E+01	2.004E+00	-6.507E-01	2.425E+00	-1.748E-01	3.108E+00	-1.140E+00	1.476E+02	-9.050E+01	7.539E+02	4.308E+03
51.70	1.627E+01	5.008E+03	1.192E+01	1.922E+00	-5.863E-01	2.544E+00	-2.102E-01	3.190E+00	-1.186E+00	1.403E+02	-7.348E+01	7.568E+02	4.225E+03
51.75	1.589E+01	5.005E+03	1.192E+01	1.851E+00	-5.236E-01	2.661E+00	-2.445E-01	3.295E+00	-1.233E+00	1.342E+02	-5.892E+01	7.591E+02	4.162E+03
51.80	1.527E+01	5.001E+03	1.192E+01	1.783E+00	-4.636E-01	2.775E+00	-2.791E-01	3.418E+00	-1.280E+00	1.309E+02	-4.836E+01	7.616E+02	4.142E+03
51.85	1.514E+01	4.997E+03	1.192E+01	1.718E+00	-4.110E-01	2.890E+00	-3.182E-01	3.545E+00	-1.324E+00	1.311E+02	-3.647E+01	7.658E+02	4.157E+03
51.90	1.534E+01	4.995E+03	1.192E+01	1.663E+00	-3.682E-01	3.012E+00	-3.634E-01	3.653E+00	-1.364E+00	1.324E+02	-2.476E+01	7.703E+02	4.195E+03
51.95	1.568E+01	4.994E+03	1.192E+01	1.633E+00	-3.360E-01	3.140E+00	-4.137E-01	3.729E+00	-1.396E+00	1.339E+02	-1.469E+01	7.733E+02	4.244E+03
52.00	1.556E+01	4.996E+03	1.192E+01	1.634E+00	-3.140E-01	3.272E+00	-4.665E-01	3.760E+00	-1.415E+00	1.340E+02	-3.930E+00	7.736E+02	4.291E+03
52.05	1.524E+01	4.999E+03	1.192E+01	1.665E+00	-2.999E-01	3.399E+00	-5.186E-01	3.743E+00	-1.420E+00	1.353E+02	5.883E+00	7.717E+02	4.328E+03
52.10	1.514E+01	5.003E+03	1.193E+01	1.715E+00	-2.905E-01	3.513E+00	-5.666E-01	3.692E+00	-1.411E+00	1.334E+02	1.500E+01	7.686E+02	4.354E+03
52.15	1.520E+01	5.007E+03	1.193E+01	1.778E+00	-2.865E-01	3.602E+00	-6.099E-01	3.623E+00	-1.394E+00	1.345E+02	2.258E+01	7.659E+02	4.345E+03
52.20	1.514E+01	5.009E+03	1.193E+01	1.851E+00	-2.873E-01	3.661E+00	-6.479E-01	3.542E+00	-1.372E+00	1.372E+02	3.272E+01	7.650E+02	4.305E+03
52.25	1.520E+01	5.010E+03	1.194E+01	1.930E+00	-2.882E-01	3.694E+00	-6.781E-01	3.453E+00	-1.343E+00	1.419E+02	4.195E+01	7.637E+02	4.277E+03
52.30	1.517E+01	5.011E+03	1.195E+01	2.015E+00	-2.863E-01	3.708E+00	-7.022E-01	3.346E+00	-1.307E+00	1.478E+02	4.948E+01	7.608E+02	4.259E+03
52.35	1.525E+01	5.010E+03	1.194E+01	2.103E+00	-2.821E-01	3.711E+00	-7.239E-01	3.216E+00	-1.265E+00	1.554E+02	5.549E+01	7.559E+02	4.235E+03
52.40	1.513E+01	5.008E+03	1.194E+01	2.190E+00	-2.773E-01	3.702E+00	-7.439E-01	3.067E+00	-1.221E+00	1.626E+02	6.189E+01	7.476E+02	4.199E+03
52.45	1.491E+01	5.006E+03	1.194E+01	2.268E+00	-2.725E-01	3.676E+00	-7.616E-01	2.913E+00	-1.179E+00	1.676E+02	6.987E+01	7.388E+02	4.168E+03
52.50	1.481E+01	5.002E+03	1.194E+01	2.332E+00	-2.664E-01	3.633E+00	-7.752E-01	2.773E+00	-1.141E+00	1.719E+02	7.734E+01	7.321E+02	4.175E+03
52.55	1.460E+01	5.001E+03	1.195E+01	2.378E+00	-2.573E-01	3.576E+00	-7.846E-01	2.668E+00	-1.113E+00	1.731E+02	8.425E+01	7.259E+02	4.225E+03
52.60	1.423E+01	5.001E+03	1.194E+01	2.404E+00	-2.453E-01	3.520E+00	-7.958E-01	2.607E+00	-1.098E+00	1.708E+02	9.210E+01	7.180E+02	4.267E+03
52.65	1.454E+01	5.002E+03	1.193E+01	2.408E+00	-2.308E-01	3.476E+00	-8.152E-01	2.585E+00	-1.095E+00	1.685E+02	1.012E+02	7.108E+02	4.263E+03
52.70	1.447E+01	5.002E+03	1.193E+01	2.394E+00	-2.118E-01	3.446E+00	-8.399E-01	2.593E+00	-1.099E+00	1.655E+02	1.086E+02	7.008E+02	4.238E+03
52.75	1.451E+01	5.002E+03	1.193E+01	2.365E+00	-1.877E-01	3.419E+00	-8.644E-01	2.620E+00	-1.103E+00	1.644E+02	1.137E+02	6.897E+02	4.222E+03
52.80	1.432E+01	5.001E+03	1.194E+01	2.318E+00	-1.587E-01	3.388E+00	-8.832E-01	2.653E+00	-1.103E+00	1.645E+02	1.171E+02	6.803E+02	4.232E+03
52.85	1.422E+01	5.001E+03	1.193E+01	2.256E+00	-1.278E-01	3.340E+00	-8.943E-01	2.689E+00	-1.098E+00	1.610E+02	1.219E+02	6.709E+02	4.241E+03
52.90	1.421E+01	5.001E+03	1.193E+01	2.189E+00	-1.003E-01	3.272E+00	-8.999E-01	2.720E+00	-1.090E+00	1.607E+02	1.272E+02	6.610E+02	4.219E+03
52.95	1.416E+01	4.999E+03	1.192E+01	2.133E+00	-7.815E-02	3.193E+00	-9.029E-01	2.742E+00	-1.075E+00	1.608E+02	1.325E+02	6.529E+02	4.182E+03
53.00	1.416E+01	4.996E+03	1.192E+01	2.097E+00	-6.245E-02	3.114E+00	-9.077E-01	2.751E+00	-1.053E+00	1.599E+02	1.358E+02	6.431E+02	4.148E+03
53.05	1.372E+01	4.993E+03	1.191E+01	2.089E+00	-5.492E-02	3.052E+00	-9.193E-01	2.741E+00	-1.023E+00	1.603E+02	1.359E+02	6.315E+02	4.125E+03
53.10	1.346E+01	4.989E+03	1.190E+01	2.107E+00	-5.647E-02	3.016E+00	-9.392E-01	2.706E+00	-9.829E-01	1.608E+02	1.346E+02	6.206E+02	4.125E+03
53.15	1.358E+01	4.985E+03	1.189E+01	2.146E+00	-6.791E-02	3.005E+00	-9.668E-01	2.652E+00	-9.368E-01	1.629E+02	1.324E+02	6.103E+02	4.136E+03
53.20	1.390E+01	4.982E+03	1.188E+01	2.201E+00	-8.942E-02	3.011E+00	-1.000E+00	2.570E+00	-8.859E-01	1.650E+02	1.326E+02	6.007E+02	4.142E+03
53.25	1.417E+01	4.980E+03	1.188E+01	2.265E+00	-1.167E-01	3.022E+00	-1.035E+00	2.463E+00	-8.295E-01	1.669E+02	1.326E+02	5.890E+02	4.156E+03
53.30	1.404E+01	4.979E+03	1.187E+01	2.332E+00	-1.456E-01	3.031E+00	-1.069E+00	2.343E+00	-7.675E-01	1.732E+02	1.302E+02	5.783E+02	4.184E+03
53.35	1.396E+01	4.979E+03	1.187E+01	2.409E+00	-1.749E-01	3.039E+00	-1.101E+00	2.226E+00	-7.026E-01	1.774E+02	1.266E+02	5.678E+02	4.220E+03
53.40	1.405E+01	4.980E+03	1.186E+01	2.501E+00	-2.069E-01	3.048E+00	-1.131E+00	2.121E+00	-6.390E-01	1.804E+02	1.212E+02	5.552E+02	4.240E+03
53.45	1.393E+01	4.981E+03	1.186E+01	2.612E+00	-2.442E-01	3.064E+00	-1.159E+00	2.035E+00	-5.803E-01	1.829E+02	1.171E+02	5.445E+02	4.231E+03
53.50	1.374E+01	4.981E+03	1.185E+01	2.728E+00	-2.846E-01	3.081E+00	-1.182E+00	1.971E+00	-5.289E-01	1.922E+02	1.104E+02	5.337E+02	4.208E+03
53.55	1.331E+01	4.981E+03	1.185E+01	2.835E+00	-3.241E-01	3.095E+00	-1.197E+00	1.930E+00	-4.846E-01	2.013E+02	1.048E+02	5.241E+02	4.195E+03
53.60	1.353E+01	4.980E+03	1.185E+01	2.929E+00	-3.614E-01	3.103E+00	-1.205E+00	1.907E+00	-4.474E-01	2.100E+02	9.844E+01	5.127E+02	4.191E+03
53.65	1.342E+01	4.979E+03	1.184E+01	3.018E+00	-3.983E-01	3.108E+00	-1.209E+00	1.900E+00	-4.156E-01	2.162E+02	9.121E+01	5.005E+02	4.191E+03
53.70	1.321E+01	4.978E+03	1.184E+01	3.114E+00	-4.384E-01	3.112E+00	-1.212E+00	1.907E+00	-3.880E-01	2.198E+02	8.347E+01	4.908E+02	4.190E+03
53.75	1.329E+01	4.977E+03	1.183E+01	3.224E+00	-4.840E-01	3.112E+00	-1.215E+00	1.931E+00	-3.660E-01	2.173E+02	7.536E+01	4.815E+02	4.184E+03
53.80	1.333E+01	4.976E+03	1.182E+01	3.345E+00	-5.353E-01	3.099E+00	-1.216E+00	1.968E+00	-3.507E-01	2.082E+02	6.951E+01	4.725E+02	4.173E+03
53.85	1.336E+01	4.974E+03	1.182E+01	3.466E+00	-5.885E-01	3.066E+00	-1.211E+00	2.010E+00	-3.404E-01	2.005E+02	6.457E+01	4.637E+02	4.176E+03
53.90	1.331E+01	4.974E+03	1.182E+01	3.570E+00	-6.367E-01	3.019E+00	-1.200E+00	2.047E+00	-3.304E-01	1.971E+02	5.613E+01	4.540E+02	4.211E+03
53.95	1.329E+01	4.975E+03	1.182E+01	3.645E+00	-6.760E-01	2.962E+00	-1.184E+00	2.078E+00	-3.176E-01	1.948E+02	4.950E+01	4.452E+02	4.262E+03
54.00	1.307E+01	4.977E+03	1.181E+01	3.692E+00	-7.072E-01	2.894E+00	-1.167E+00	2.101E+00	-3.002E-01	1.958E+02	3.909E+01	4.364E+02	4.297E+03
54.05	1.301E+01	4.980E+03	1.180E+01	3.714E+00	-7.335E-01	2.825E+00	-1.151E+00	2.116E+00	-2.786E-01	1.986E+02	3.033E+01	4.311E+02	4.290E+03
54.10	1.281E+01	4.982E+03	1.180E+01	3.720E+00	-7.567E-01	2.766E+00	-1.137E+00	2.125E+00	-2.543E-01	2.027E+02	2.132E+01	4.281E+02	4.258E+03
54.15	1.257E+01	4.982E+03	1.180E+01	3.722E+00	-7.786E-01	2.721E+00	-1.127E+00	2.136E+00	-2.304E-01	2.088E+02	9.629E+00	4.248E+02	4.222E+03
54.20	1.259E+01	4.981E+03	1.180E+01	3.727E+00	-8.006E-01	2.694E+00	-1.118E+00	2.156E+00	-2.102E-01	2.119E+02	-6.584E-01	4.213E+02	4.200E+03
54.25	1.261E+01	4.980E+03	1.179E+01	3.734E+00	-8.238E-01	2.682E+00	-1.112E+00	2.190E+00	-1.960E-01	2.097E+02	-1.060E+01	4.165E+02	4.184E+03
54.30	1.280E+01	4.977E+03	1.178E+01	3.743E+00	-8.498E-01	2.685E+00	-1.111E+00	2.231E+00	-1.867E-01	2.049E+02	-2.111E+01	4.109E+02	4.160E+03
54.35	1.251E+01	4.974E+03	1.177E+01	3.749E+00	-8.782E-01	2.697E+00	-1.110E+00	2.261E+00	-1.754E-01	2.010E+02	-3.046E+01	4.074E+02	4.146E+03
54.40	1.228E+01	4.971E+03	1.177E+01	3.750E+00	-9.062E-01	2.713E+00	-1.107E+00	2.261E+00	-1.555E-01	1.924E+02	-3.846E+01	4.068E+02	4.170E+03
54.45	1.213E+01	4.971E+03	1.177E+01	3.743E+00	-9.319E-01	2.738E+00	-1.101E+00	2.229E+00	-1.266E-01	1.867E+02	-4.794E+01	4.079E+02	4.231E+03
54.50	1.200E+01	4.972E+03	1.177E+01	3.726E+00	-9.541E-01	2.788E+00	-1.093E+00	2.179E+00	-9.361E-02	1.856E+02	-5.957E+01	4.087E+02	4.310E+03
54.55	1.224E+01	4.977E+03	1.176E+01	3.699E+00	-9.735E-01	2.868E+00	-1.089E+00	2.131E+00	-6.465E-02	1.851E+02	-7.153E+01	4.090E+02	4.358E+03
54.60	1.225E+01	4.981E+03	1.176E+01	3.666E+00	-9.945E-01	2.973E+00	-1.091E+00	2.102E+00	-4.595E-02	1.866E+02	-8.231E+01	4.090E+02	4.336E+03
54.65	1.269E+01	4.984E+03	1.175E+01	3.638E+00	-1.020E+00	3.075E+00	-1.091E+00	2.092E+00	-3.666E-02	1.910E+02	-9.299E+01	4.098E+02	4.265E+03
54.70	1.283E+01	4.983E+03	1.176E+01	3.614E+00	-1.046E+00	3.137E+00	-1.080E+00	2.100E+00	-3.206E-02	2.005E+02	-1.051E+02	4.130E+02	4.211E+03
54.75	1.264E+01	4.981E+03	1.176E+01	3.598E+00	-1.071E+00	3.144E+00	-1.049E+00	2.124E+00	-2.935E-02	2.097E+02	-1.187E+02	4.188E+02	4.207E+03
54.80	1.241E+01	4.980E+03	1.175E+01	3.597E+00	-1.099E+00	3.090E+00	-1.002E+00	2.158E+00	-3.133E-02	2.153E+02	-1.299E+02	4.246E+02	4.220E+03
54.85	1.264E+01	4.979E+03	1.175E+01	3.617E+00	-1.129E+00	2.985E+00	-9.443E-01	2.191E+00	-3.945E-02	2.179E+02	-1.400E+02	4.288E+02	4.230E+03
54.90	1.274E+01	4.978E+03	1.174E+01	3.651E+00	-1.161E+00	2.850E+00	-8.820E-01	2.221E+00	-5.221E-02	2.149E+02	-1.495E+02	4.317E+02	4.246E+03
54.95	1.279E+01	4.978E+03	1.174E+01	3.690E+00	-1.191E+00	2.709E+00	-8.199E-01	2.253E+00	-6.862E-02	2.079E+02	-1.584E+02	4.341E+02	4.269E+03
55.00	1.267E+01	4.980E+03	1.174E+01	3.725E+00	-1.221E+00	2.587E+00	-7.628E-01	2.290E+00	-8.812E-02	2.034E+02	-1.673E+02	4.368E+02	4.293E+03
55.05	1.290E+01	4.982E+03	1.174E+01	3.758E+00	-1.251E+00	2.494E+00	-7.119E-01	2.339E+00	-1.094E-01	2.008E+02	-1.761E+02	4.427E+02	4.311E+03
55.10	1.293E+01	4.983E+03	1.173E+01	3.792E+00	-1.281E+00	2.427E+00	-6.669E-01	2.404E+00	-1.341E-01	1.978E+02	-1.819E+02	4.516E+02	4.300E+03
55.15	1.336E+01	4.984E+03	1.172E+01	3.821E+00	-1.309E+00	2.371E+00	-6.258E-01	2.485E+00	-1.645E-01	1.951E+02	-1.852E+02	4.592E+02	4.261E+03
55.20	1.340E+01	4.983E+03	1.172E+01	3.835E+00	-1.329E+00	2.311E+00	-5.864E-01	2.587E+00	-2.003E-01	1.957E+02	-1.901E+02	4.672E+02	4.223E+03
55.25	1.312E+01	4.981E+03	1.172E+01	3.831E+00	-1.339E+00	2.240E+00	-5.467E-01	2.712E+00	-2.409E-01	2.003E+02	-1.967E+02	4.758E+02	4.214E+03
55.30	1.281E+01	4.980E+03	1.172E+01	3.815E+00	-1.337E+00	2.164E+00	-5.043E-01	2.852E+00	-2.840E-01	2.024E+02	-2.039E+02	4.813E+02	4.244E+03
55.35	1.264E+01	4.980E+03	1.172E+01	3.786E+00	-1.330E+00	2.091E+00	-4.611E-01	2.998E+00	-3.284E-01	2.028E+02	-2.106E+02	4.877E+02	4.278E+03
55.40	1.253E+01	4.980E+03	1.170E+01	3.741E+00	-1.321E+00	2.035E+00	-4.225E-01	3.139E+00	-3.756E-01	2.041E+02	-2.152E+02	4.977E+02	4.264E+03
55.45	1.257E+01	4.979E+03	1.169E+01	3.677E+00	-1.311E+00	2.008E+00	-3.907E-01	3.274E+00	-4.271E-01	2.018E+02	-2.154E+02	5.074E+02	4.209E+03
55.50	1.232E+01	4.976E+03	1.169E+01	3.588E+00	-1.295E+00	2.012E+00	-3.636E-01	3.405E+00	-4.809E-01	1.975E+02	-2.149E+02	5.150E+02	4.174E+03
55.55	1.216E+01	4.973E+03	1.169E+01	3.472E+00	-1.270E+00	2.039E+00	-3.393E-01	3.538E+00	-5.336E-01	1.939E+02	-2.168E+02	5.256E+02	4.197E+03
55.60	1.200E+01	4.971E+03	1.168E+01	3.334E+00	-1.237E+00	2.081E+00	-3.185E-01	3.669E+00	-5.871E-01	1.878E+02	-2.187E+02	5.364E+02	4.232E+03
55.65	1.192E+01	4.971E+03	1.166E+01	3.188E+00	-1.203E+00	2.121E+00	-3.005E-01	3.797E+00	-6.441E-01	1.745E+02	-2.185E+02	5.435E+02	4.231E+03
55.70	1.209E+01	4.969E+03	1.165E+01	3.042E+00	-1.171E+00	2.147E+00	-2.814E-01	3.922E+00	-7.035E-01	1.682E+02	-2.177E+02	5.534E+02	4.208E+03
55.75	1.197E+01	4.967E+03	1.165E+01	2.902E+00	-1.138E+00	2.160E+00	-2.555E-01	4.040E+00	-7.592E-01	1.608E+02	-2.150E+02	5.667E+02	4.220E+03
55.80	1.182E+01	4.967E+03	1.164E+01	2.770E+00	-1.102E+00	2.163E+00	-2.236E-01	4.136E+00	-8.079E-01	1.505E+02	-2.133E+02	5.747E+02	4.256E+03
55.85	1.177E+01	4.967E+03	1.163E+01	2.647E+00	-1.068E+00	2.166E+00	-1.935E-01	4.205E+00	-8.503E-01	1.462E+02	-2.108E+02	5.841E+02	4.275E+03
55.90	1.208E+01	4.968E+03	1.162E+01	2.540E+00	-1.038E+00	2.177E+00	-1.703E-01	4.249E+00	-8.873E-01	1.431E+02	-2.064E+02	5.966E+02	4.255E+03
55.95	1.196E+01	4.966E+03	1.161E+01	2.470E+00	-1.016E+00	2.197E+00	-1.541E-01	4.272E+00	-9.198E-01	1.421E+02	-2.047E+02	6.047E+02	4.210E+03
56.00	1.184E+01	4.964E+03	1.160E+01	2.447E+00	-1.002E+00	2.223E+00	-1.412E-01	4.279E+00	-9.457E-01	1.444E+02	-2.030E+02	6.154E+02	4.186E+03
56.05	1.151E+01	4.961E+03	1.159E+01	2.480E+00	-9.968E-01	2.249E+00	-1.277E-01	4.275E+00	-9.654E-01	1.474E+02	-1.999E+02	6.279E+02	4.193E+03
56.10	1.156E+01	4.959E+03	1.158E+01	2.567E+00	-1.002E+00	2.263E+00	-1.131E-01	4.260E+00	-9.818E-01	1.556E+02	-1.989E+02	6.368E+02	4.205E+03
56.15	1.187E+01	4.957E+03	1.157E+01	2.696E+00	-1.018E+00	2.262E+00	-9.877E-02	4.232E+00	-9.964E-01	1.596E+02	-1.942E+02	6.457E+02	4.205E+03
56.20	1.198E+01	4.955E+03	1.156E+01	2.844E+00	-1.039E+00	2.249E+00	-8.637E-02	4.186E+00	-1.008E+00	1.688E+02	-1.881E+02	6.536E+02	4.199E+03
56.25	1.200E+01	4.953E+03	1.155E+01	2.998E+00	-1.059E+00	2.231E+00	-7.343E-02	4.118E+00	-1.012E+00	1.803E+02	-1.834E+02	6.614E+02	4.233E+03
56.30	1.211E+01	4.954E+03	1.155E+01	3.150E+00	-1.073E+00	2.218E+00	-5.991E-02	4.028E+00	-1.006E+00	1.930E+02	-1.821E+02	6.685E+02	4.303E+03
56.35	1.183E+01	4.956E+03	1.154E+01	3.296E+00	-1.085E+00	2.223E+00	-4.927E-02	3.928E+00	-9.964E-01	2.052E+02	-1.788E+02	6.756E+02	4.356E+03
56.40	1.154E+01	4.960E+03	1.153E+01	3.430E+00	-1.093E+00	2.246E+00	-4.261E-02	3.837E+00	-9.904E-01	2.164E+02	-1.737E+02	6.823E+02	4.364E+03
56.45	1.169E+01	4.963E+03	1.152E+01	3.549E+00	-1.098E+00	2.286E+00	-4.058E-02	3.771E+00	-9.937E-01	2.187E+02	-1.649E+02	6.872E+02	4.326E+03
56.50	1.184E+01	4.964E+03	1.152E+01	3.645E+00	-1.097E+00	2.341E+00	-4.416E-02	3.740E+00	-1.008E+00	2.163E+02	-1.556E+02	6.892E+02	4.273E+03
56.55	1.198E+01	4.963E+03	1.152E+01	3.709E+00	-1.086E+00	2.413E+00	-5.157E-02	3.744E+00	-1.031E+00	2.154E+02	-1.457E+02	6.929E+02	4.255E+03
56.60	1.190E+01	4.962E+03	1.152E+01	3.741E+00	-1.066E+00	2.491E+00	-6.117E-02	3.773E+00	-1.059E+00	2.143E+02	-1.365E+02	6.972E+02	4.277E+03
56.65	1.177E+01	4.962E+03	1.151E+01	3.743E+00	-1.037E+00	2.565E+00	-7.190E-02	3.810E+00	-1.088E+00	2.119E+02	-1.278E+02	7.016E+02	4.313E+03
56.70	1.181E+01	4.963E+03	1.151E+01	3.722E+00	-1.002E+00	2.631E+00	-8.358E-02	3.843E+00	-1.116E+00	2.103E+02	-1.163E+02	7.069E+02	4.342E+03
56.75	1.175E+01	4.966E+03	1.151E+01	3.681E+00	-9.609E-01	2.697E+00	-9.704E-02	3.874E+00	-1.144E+00	2.099E+02	-1.050E+02	7.109E+02	4.368E+03
56.80	1.213E+01	4.969E+03	1.151E+01	3.623E+00	-9.140E-01	2.776E+00	-1.155E-01	3.906E+00	-1.172E+00	2.110E+02	-9.432E+01	7.133E+02	4.392E+03
56.85	1.215E+01	4.972E+03	1.151E+01	3.553E+00	-8.635E-01	2.876E+00	-1.421E-01	3.936E+00	-1.199E+00	2.100E+02	-8.211E+01	7.147E+02	4.412E+03
56.90	1.186E+01	4.976E+03	1.151E+01	3.478E+00	-8.119E-01	2.996E+00	-1.771E-01	3.965E+00	-1.223E+00	2.111E+02	-7.170E+01	7.158E+02	4.421E+03
56.95	1.197E+01	4.980E+03	1.151E+01	3.414E+00	-7.632E-01	3.129E+00	-2.190E-01	3.995E+00	-1.243E+00	2.088E+02	-5.940E+01	7.180E+02	4.412E+03
57.00	1.216E+01	4.982E+03	1.151E+01	3.366E+00	-7.187E-01	3.266E+00	-2.663E-01	4.024E+00	-1.260E+00	2.021E+02	-4.567E+01	7.202E+02	4.375E+03
57.05	1.233E+01	4.982E+03	1.150E+01	3.330E+00	-6.767E-01	3.403E+00	-3.173E-01	4.048E+00	-1.272E+00	1.946E+02	-3.289E+01	7.218E+02	4.326E+03
57.10	1.216E+01	4.981E+03	1.150E+01	3.296E+00	-6.349E-01	3.532E+00	-3.690E-01	4.056E+00	-1.278E+00	1.865E+02	-1.926E+01	7.216E+02	4.298E+03
57.15	1.247E+01	4.979E+03	1.151E+01	3.260E+00	-5.915E-01	3.651E+00	-4.193E-01	4.038E+00	-1.275E+00	1.823E+02	-7.087E+00	7.198E+02	4.317E+03
57.20	1.257E+01	4.979E+03	1.151E+01	3.219E+00	-5.476E-01	3.759E+00	-4.681E-01	3.990E+00	-1.263E+00	1.802E+02	1.940E+00	7.171E+02	4.364E+03
57.25	1.255E+01	4.981E+03	1.150E+01	3.173E+00	-5.068E-01	3.865E+00	-5.174E-01	3.918E+00	-1.245E+00	1.821E+02	1.136E+01	7.153E+02	4.406E+03
57.30	1.277E+01	4.984E+03	1.150E+01	3.126E+00	-4.699E-01	3.984E+00	-5.671E-01	3.832E+00	-1.223E+00	1.840E+02	2.243E+01	7.129E+02	4.434E+03
57.35	1.292E+01	4.987E+03	1.150E+01	3.086E+00	-4.363E-01	4.127E+00	-6.185E-01	3.739E+00	-1.198E+00	1.833E+02	3.213E+01	7.110E+02	4.438E+03
57.40	1.244E+01	4.990E+03	1.150E+01	3.050E+00	-4.055E-01	4.291E+00	-6.717E-01	3.644E+00	-1.173E+00	1.832E+02	4.096E+01	7.080E+02	4.408E+03
57.45	1.206E+01	4.990E+03	1.150E+01	3.016E+00	-3.762E-01	4.459E+00	-7.246E-01	3.550E+00	-1.149E+00	1.833E+02	4.999E+01	7.034E+02	4.359E+03
57.50	1.189E+01	4.989E+03	1.149E+01	2.984E+00	-3.473E-01	4.608E+00	-7.737E-01	3.463E+00	-1.128E+00	1.800E+02	5.873E+01	6.971E+02	4.314E+03
57.55	1.202E+01	4.986E+03	1.149E+01	2.953E+00	-3.193E-01	4.721E+00	-8.167E-01	3.382E+00	-1.112E+00	1.769E+02	6.794E+01	6.903E+02	4.280E+03
57.60	1.169E+01	4.983E+03	1.149E+01	2.924E+00	-2.918E-01	4.794E+00	-8.510E-01	3.315E+00	-1.098E+00	1.739E+02	7.728E+01	6.838E+02	4.277E+03
57.65	1.181E+01	4.980E+03	1.148E+01	2.904E+00	-2.635E-01	4.828E+00	-8.750E-01	3.269E+00	-1.088E+00	1.691E+02	8.587E+01	6.773E+02	4.311E+03
57.70	1.202E+01	4.979E+03	1.148E+01	2.888E+00	-2.356E-01	4.832E+00	-8.916E-01	3.253E+00	-1.083E+00	1.638E+02	9.379E+01	6.695E+02	4.349E+03
57.75	1.209E+01	4.979E+03	1.147E+01	2.872E+00	-2.088E-01	4.817E+00	-9.051E-01	3.269E+00	-1.085E+00	1.602E+02	1.024E+02	6.613E+02	4.364E+03
57.80	1.207E+01	4.980E+03	1.146E+01	2.849E+00	-1.813E-01	4.794E+00	-9.179E-01	3.317E+00	-1.091E+00	1.583E+02	1.097E+02	6.525E+02	4.369E+03
57.85	1.208E+01	4.980E+03	1.146E+01	2.816E+00	-1.526E-01	4.776E+00	-9.329E-01	3.397E+00	-1.101E+00	1.577E+02	1.168E+02	6.428E+02	4.369E+03
57.90	1.217E+01	4.981E+03	1.145E+01	2.775E+00	-1.243E-01	4.771E+00	-9.519E-01	3.502E+00	-1.112E+00	1.611E+02	1.219E+02	6.333E+02	4.359E+03
57.95	1.191E+01	4.980E+03	1.145E+01	2.736E+00	-9.962E-02	4.770E+00	-9.743E-01	3.622E+00	-1.122E+00	1.680E+02	1.263E+02	6.260E+02	4.332E+03
58.00	1.184E+01	4.978E+03	1.144E+01	2.716E+00	-8.067E-02	4.755E+00	-9.949E-01	3.742E+00	-1.128E+00	1.726E+02	1.321E+02	6.172E+02	4.304E+03
58.05	1.161E+01	4.976E+03	1.143E+01	2.727E+00	-6.905E-02	4.705E+00	-1.009E+00	3.860E+00	-1.128E+00	1.743E+02	1.360E+02	6.065E+02	4.286E+03
58.10	1.147E+01	4.973E+03	1.143E+01	2.773E+00	-6.579E-02	4.616E+00	-1.016E+00	3.976E+00	-1.125E+00	1.747E+02	1.401E+02	5.986E+02	4.285E+03
58.15	1.161E+01	4.970E+03	1.142E+01	2.850E+00	-6.871E-02	4.505E+00	-1.019E+00	4.084E+00	-1.116E+00	1.709E+02	1.427E+02	5.869E+02	4.316E+03
58.20	1.188E+01	4.970E+03	1.142E+01	2.943E+00	-7.650E-02	4.398E+00	-1.022E+00	4.180E+00	-1.103E+00	1.638E+02	1.439E+02	5.734E+02	4.363E+03
58.25	1.202E+01	4.971E+03	1.141E+01	3.040E+00	-8.956E-02	4.319E+00	-1.030E+00	4.258E+00	-1.086E+00	1.651E+02	1.446E+02	5.642E+02	4.391E+03
58.30	1.229E+01	4.973E+03	1.140E+01	3.135E+00	-1.062E-01	4.286E+00	-1.046E+00	4.311E+00	-1.065E+00	1.678E+02	1.458E+02	5.556E+02	4.401E+03
58.35	1.259E+01	4.974E+03	1.140E+01	3.226E+00	-1.231E-01	4.288E+00	-1.066E+00	4.334E+00	-1.037E+00	1.704E+02	1.460E+02	5.424E+02	4.408E+03
58.40	1.276E+01	4.976E+03	1.140E+01	3.311E+00	-1.389E-01	4.303E+00	-1.083E+00	4.333E+00	-1.004E+00	1.799E+02	1.448E+02	5.328E+02	4.413E+03
58.45	1.267E+01	4.978E+03	1.140E+01	3.400E+00	-1.545E-01	4.315E+00	-1.097E+00	4.316E+00	-9.663E-01	1.895E+02	1.441E+02	5.251E+02	4.420E+03
[...]
622.95	1.190E+01	5.050E+03	1.290E+01	3.392E+00	-5.454E-01	3.479E+00	-3.373E-01	4.510E+00	-1.320E+00	2.122E+02	8.748E+00	8.593E+02	3.853E+03
623.00	1.202E+01	5.041E+03	1.290E+01	3.293E+00	-5.039E-01	3.416E+00	-3.661E-01	4.423E+00	-1.294E+00	2.130E+02	1.777E+01	8.555E+02	3.813E+03
623.05	1.196E+01	5.033E+03	1.289E+01	3.225E+00	-4.672E-01	3.370E+00	-3.990E-01	4.352E+00	-1.275E+00	2.100E+02	2.787E+01	8.505E+02	3.814E+03
623.10	1.184E+01	5.026E+03	1.288E+01	3.186E+00	-4.366E-01	3.328E+00	-4.331E-01	4.303E+00	-1.268E+00	2.045E+02	3.893E+01	8.451E+02	3.832E+03
623.15	1.186E+01	5.020E+03	1.288E+01	3.164E+00	-4.099E-01	3.276E+00	-4.637E-01	4.276E+00	-1.272E+00	2.000E+02	4.961E+01	8.409E+02	3.867E+03
623.20	1.176E+01	5.017E+03	1.287E+01	3.152E+00	-3.845E-01	3.211E+00	-4.873E-01	4.263E+00	-1.286E+00	1.966E+02	6.099E+01	8.340E+02	3.921E+03
623.25	1.151E+01	5.016E+03	1.288E+01	3.141E+00	-3.576E-01	3.139E+00	-5.039E-01	4.256E+00	-1.304E+00	1.951E+02	7.176E+01	8.274E+02	3.986E+03
623.30	1.102E+01	5.017E+03	1.288E+01	3.119E+00	-3.259E-01	3.072E+00	-5.147E-01	4.243E+00	-1.321E+00	1.973E+02	8.037E+01	8.201E+02	4.046E+03
623.35	1.073E+01	5.020E+03	1.288E+01	3.080E+00	-2.904E-01	3.021E+00	-5.236E-01	4.217E+00	-1.333E+00	1.974E+02	8.883E+01	8.104E+02	4.061E+03
623.40	1.085E+01	5.022E+03	1.287E+01	3.025E+00	-2.541E-01	2.989E+00	-5.345E-01	4.171E+00	-1.337E+00	2.014E+02	9.746E+01	8.025E+02	4.005E+03
623.45	1.049E+01	5.021E+03	1.287E+01	2.960E+00	-2.179E-01	2.967E+00	-5.465E-01	4.108E+00	-1.330E+00	2.056E+02	1.055E+02	7.945E+02	3.920E+03
623.50	1.042E+01	5.018E+03	1.287E+01	2.906E+00	-1.849E-01	2.946E+00	-5.586E-01	4.037E+00	-1.313E+00	2.070E+02	1.122E+02	7.848E+02	3.850E+03
623.55	1.049E+01	5.012E+03	1.286E+01	2.875E+00	-1.601E-01	2.919E+00	-5.738E-01	3.969E+00	-1.287E+00	2.018E+02	1.184E+02	7.753E+02	3.801E+03
623.60	1.061E+01	5.006E+03	1.285E+01	2.875E+00	-1.484E-01	2.893E+00	-5.980E-01	3.905E+00	-1.256E+00	1.943E+02	1.236E+02	7.651E+02	3.763E+03
623.65	1.082E+01	4.998E+03	1.284E+01	2.895E+00	-1.495E-01	2.883E+00	-6.359E-01	3.848E+00	-1.225E+00	1.848E+02	1.294E+02	7.528E+02	3.739E+03
623.70	1.111E+01	4.992E+03	1.283E+01	2.916E+00	-1.574E-01	2.893E+00	-6.851E-01	3.798E+00	-1.189E+00	1.813E+02	1.331E+02	7.413E+02	3.764E+03
623.75	1.122E+01	4.987E+03	1.283E+01	2.929E+00	-1.663E-01	2.919E+00	-7.386E-01	3.752E+00	-1.146E+00	1.829E+02	1.340E+02	7.323E+02	3.852E+03
623.80	1.126E+01	4.987E+03	1.283E+01	2.944E+00	-1.766E-01	2.954E+00	-7.930E-01	3.698E+00	-1.098E+00	1.898E+02	1.329E+02	7.215E+02	3.961E+03
623.85	1.082E+01	4.991E+03	1.283E+01	2.974E+00	-1.909E-01	2.996E+00	-8.477E-01	3.641E+00	-1.048E+00	1.986E+02	1.333E+02	7.110E+02	4.042E+03
623.90	1.069E+01	4.996E+03	1.283E+01	3.030E+00	-2.086E-01	3.039E+00	-8.997E-01	3.584E+00	-9.969E-01	2.082E+02	1.328E+02	6.997E+02	4.084E+03
623.95	1.054E+01	5.002E+03	1.284E+01	3.102E+00	-2.249E-01	3.087E+00	-9.475E-01	3.528E+00	-9.454E-01	2.135E+02	1.333E+02	6.883E+02	4.095E+03
624.00	1.043E+01	5.007E+03	1.285E+01	3.174E+00	-2.353E-01	3.151E+00	-9.915E-01	3.480E+00	-8.949E-01	2.161E+02	1.294E+02	6.737E+02	4.084E+03
624.05	1.046E+01	5.011E+03	1.285E+01	3.232E+00	-2.420E-01	3.235E+00	-1.034E+00	3.445E+00	-8.500E-01	2.149E+02	1.280E+02	6.626E+02	4.022E+03
624.10	1.046E+01	5.011E+03	1.284E+01	3.274E+00	-2.492E-01	3.327E+00	-1.074E+00	3.419E+00	-8.151E-01	2.161E+02	1.259E+02	6.514E+02	3.910E+03
624.15	1.058E+01	5.007E+03	1.284E+01	3.300E+00	-2.579E-01	3.410E+00	-1.111E+00	3.394E+00	-7.898E-01	2.095E+02	1.255E+02	6.390E+02	3.797E+03
624.20	1.055E+01	5.000E+03	1.284E+01	3.304E+00	-2.669E-01	3.480E+00	-1.143E+00	3.355E+00	-7.685E-01	2.018E+02	1.262E+02	6.275E+02	3.734E+03
624.25	1.043E+01	4.993E+03	1.283E+01	3.280E+00	-2.736E-01	3.538E+00	-1.171E+00	3.289E+00	-7.433E-01	1.927E+02	1.225E+02	6.153E+02	3.754E+03
624.30	1.027E+01	4.988E+03	1.283E+01	3.231E+00	-2.791E-01	3.576E+00	-1.195E+00	3.194E+00	-7.112E-01	1.881E+02	1.163E+02	6.058E+02	3.827E+03
624.35	1.042E+01	4.986E+03	1.282E+01	3.159E+00	-2.858E-01	3.595E+00	-1.216E+00	3.078E+00	-6.729E-01	1.854E+02	1.093E+02	5.974E+02	3.905E+03
624.40	1.045E+01	4.987E+03	1.281E+01	3.075E+00	-2.952E-01	3.589E+00	-1.234E+00	2.957E+00	-6.317E-01	1.815E+02	1.014E+02	5.884E+02	3.957E+03
624.45	1.032E+01	4.989E+03	1.281E+01	2.992E+00	-3.082E-01	3.551E+00	-1.244E+00	2.850E+00	-5.898E-01	1.787E+02	9.364E+01	5.801E+02	3.984E+03
624.50	1.064E+01	4.992E+03	1.281E+01	2.920E+00	-3.248E-01	3.482E+00	-1.244E+00	2.765E+00	-5.471E-01	1.773E+02	8.569E+01	5.727E+02	3.986E+03
624.55	1.092E+01	4.993E+03	1.281E+01	2.859E+00	-3.432E-01	3.394E+00	-1.237E+00	2.701E+00	-5.027E-01	1.744E+02	7.729E+01	5.642E+02	3.965E+03
624.60	1.084E+01	4.994E+03	1.280E+01	2.801E+00	-3.603E-01	3.298E+00	-1.224E+00	2.650E+00	-4.541E-01	1.730E+02	6.519E+01	5.546E+02	3.926E+03
624.65	1.059E+01	4.993E+03	1.279E+01	2.738E+00	-3.755E-01	3.213E+00	-1.209E+00	2.611E+00	-4.020E-01	1.727E+02	5.408E+01	5.483E+02	3.867E+03
624.70	1.062E+01	4.989E+03	1.278E+01	2.669E+00	-3.901E-01	3.151E+00	-1.198E+00	2.591E+00	-3.531E-01	1.697E+02	4.398E+01	5.426E+02	3.789E+03
624.75	1.082E+01	4.983E+03	1.277E+01	2.597E+00	-4.057E-01	3.108E+00	-1.192E+00	2.585E+00	-3.118E-01	1.683E+02	3.232E+01	5.364E+02	3.715E+03
624.80	1.080E+01	4.975E+03	1.276E+01	2.527E+00	-4.225E-01	3.077E+00	-1.187E+00	2.584E+00	-2.784E-01	1.658E+02	2.139E+01	5.312E+02	3.690E+03
624.85	1.081E+01	4.968E+03	1.274E+01	2.468E+00	-4.417E-01	3.053E+00	-1.183E+00	2.576E+00	-2.519E-01	1.609E+02	1.185E+01	5.260E+02	3.715E+03
624.90	1.091E+01	4.963E+03	1.273E+01	2.424E+00	-4.637E-01	3.030E+00	-1.178E+00	2.553E+00	-2.310E-01	1.524E+02	1.721E+00	5.203E+02	3.773E+03
624.95	1.091E+01	4.961E+03	1.271E+01	2.390E+00	-4.871E-01	3.012E+00	-1.172E+00	2.520E+00	-2.148E-01	1.439E+02	-8.021E+00	5.157E+02	3.833E+03
625.00	1.093E+01	4.960E+03	1.270E+01	2.358E+00	-5.101E-01	3.011E+00	-1.166E+00	2.482E+00	-2.026E-01	1.387E+02	-1.630E+01	5.131E+02	3.881E+03
625.05	1.057E+01	4.961E+03	1.269E+01	2.336E+00	-5.321E-01	3.026E+00	-1.158E+00	2.446E+00	-1.922E-01	1.369E+02	-2.681E+01	5.119E+02	3.924E+03
625.10	1.018E+01	4.964E+03	1.269E+01	2.335E+00	-5.556E-01	3.048E+00	-1.145E+00	2.412E+00	-1.819E-01	1.363E+02	-3.738E+01	5.120E+02	3.955E+03
625.15	1.004E+01	4.966E+03	1.268E+01	2.362E+00	-5.843E-01	3.070E+00	-1.129E+00	2.379E+00	-1.711E-01	1.400E+02	-4.780E+01	5.126E+02	3.958E+03
625.20	1.014E+01	4.968E+03	1.267E+01	2.417E+00	-6.188E-01	3.092E+00	-1.109E+00	2.343E+00	-1.583E-01	1.451E+02	-5.931E+01	5.135E+02	3.933E+03
625.25	1.031E+01	4.969E+03	1.266E+01	2.497E+00	-6.604E-01	3.105E+00	-1.087E+00	2.306E+00	-1.426E-01	1.509E+02	-7.078E+01	5.146E+02	3.881E+03
625.30	1.001E+01	4.967E+03	1.266E+01	2.589E+00	-7.072E-01	3.100E+00	-1.060E+00	2.268E+00	-1.231E-01	1.568E+02	-8.247E+01	5.166E+02	3.828E+03
625.35	1.001E+01	4.964E+03	1.265E+01	2.680E+00	-7.566E-01	3.086E+00	-1.030E+00	2.235E+00	-1.003E-01	1.657E+02	-9.555E+01	5.193E+02	3.803E+03
625.40	9.927E+00	4.961E+03	1.264E+01	2.762E+00	-8.070E-01	3.069E+00	-9.988E-01	2.215E+00	-7.636E-02	1.748E+02	-1.099E+02	5.229E+02	3.822E+03
625.45	1.018E+01	4.959E+03	1.263E+01	2.825E+00	-8.581E-01	3.049E+00	-9.683E-01	2.208E+00	-5.513E-02	1.843E+02	-1.250E+02	5.267E+02	3.867E+03
625.50	9.790E+00	4.959E+03	1.262E+01	2.866E+00	-9.099E-01	3.027E+00	-9.403E-01	2.210E+00	-3.981E-02	1.910E+02	-1.389E+02	5.307E+02	3.906E+03
625.55	9.409E+00	4.960E+03	1.261E+01	2.886E+00	-9.611E-01	3.004E+00	-9.144E-01	2.219E+00	-3.152E-02	1.947E+02	-1.504E+02	5.346E+02	3.930E+03
625.60	9.092E+00	4.962E+03	1.261E+01	2.890E+00	-1.008E+00	2.967E+00	-8.846E-01	2.230E+00	-2.806E-02	1.976E+02	-1.627E+02	5.397E+02	3.957E+03
625.65	8.795E+00	4.964E+03	1.261E+01	2.881E+00	-1.047E+00	2.910E+00	-8.468E-01	2.244E+00	-2.834E-02	1.950E+02	-1.741E+02	5.459E+02	3.986E+03
625.70	8.779E+00	4.967E+03	1.260E+01	2.865E+00	-1.077E+00	2.837E+00	-8.017E-01	2.260E+00	-3.493E-02	1.845E+02	-1.816E+02	5.511E+02	3.990E+03
625.75	9.455E+00	4.969E+03	1.260E+01	2.847E+00	-1.101E+00	2.752E+00	-7.533E-01	2.277E+00	-4.949E-02	1.760E+02	-1.885E+02	5.571E+02	3.957E+03
625.80	9.648E+00	4.969E+03	1.259E+01	2.826E+00	-1.117E+00	2.668E+00	-7.034E-01	2.292E+00	-6.989E-02	1.728E+02	-1.961E+02	5.662E+02	3.919E+03
625.85	9.854E+00	4.969E+03	1.259E+01	2.802E+00	-1.123E+00	2.596E+00	-6.523E-01	2.297E+00	-9.411E-02	1.621E+02	-2.005E+02	5.725E+02	3.892E+03
625.90	9.941E+00	4.967E+03	1.257E+01	2.769E+00	-1.122E+00	2.539E+00	-6.035E-01	2.290E+00	-1.214E-01	1.570E+02	-2.056E+02	5.780E+02	3.865E+03
625.95	9.684E+00	4.964E+03	1.256E+01	2.715E+00	-1.115E+00	2.495E+00	-5.598E-01	2.269E+00	-1.510E-01	1.625E+02	-2.106E+02	5.902E+02	3.823E+03
626.00	9.614E+00	4.959E+03	1.254E+01	2.645E+00	-1.102E+00	2.457E+00	-5.187E-01	2.236E+00	-1.825E-01	1.686E+02	-2.122E+02	6.008E+02	3.780E+03
626.05	9.845E+00	4.954E+03	1.253E+01	2.576E+00	-1.085E+00	2.415E+00	-4.760E-01	2.200E+00	-2.133E-01	1.717E+02	-2.136E+02	6.079E+02	3.784E+03
626.10	1.009E+01	4.951E+03	1.252E+01	2.519E+00	-1.066E+00	2.362E+00	-4.311E-01	2.173E+00	-2.420E-01	1.693E+02	-2.142E+02	6.190E+02	3.839E+03
626.15	9.889E+00	4.949E+03	1.250E+01	2.487E+00	-1.053E+00	2.301E+00	-3.891E-01	2.157E+00	-2.713E-01	1.724E+02	-2.182E+02	6.295E+02	3.889E+03
626.20	9.797E+00	4.949E+03	1.248E+01	2.480E+00	-1.050E+00	2.246E+00	-3.552E-01	2.146E+00	-3.023E-01	1.614E+02	-2.164E+02	6.387E+02	3.892E+03
626.25	9.617E+00	4.948E+03	1.247E+01	2.486E+00	-1.054E+00	2.207E+00	-3.301E-01	2.131E+00	-3.318E-01	1.539E+02	-2.160E+02	6.462E+02	3.860E+03
626.30	9.583E+00	4.946E+03	1.246E+01	2.495E+00	-1.060E+00	2.190E+00	-3.089E-01	2.108E+00	-3.534E-01	1.453E+02	-2.129E+02	6.586E+02	3.848E+03
626.35	9.535E+00	4.944E+03	1.244E+01	2.497E+00	-1.064E+00	2.195E+00	-2.890E-01	2.074E+00	-3.660E-01	1.438E+02	-2.127E+02	6.678E+02	3.859E+03
626.40	9.568E+00	4.942E+03	1.243E+01	2.483E+00	-1.064E+00	2.210E+00	-2.690E-01	2.032E+00	-3.715E-01	1.437E+02	-2.126E+02	6.782E+02	3.873E+03
626.45	9.654E+00	4.941E+03	1.240E+01	2.458E+00	-1.063E+00	2.216E+00	-2.491E-01	1.988E+00	-3.752E-01	1.502E+02	-2.122E+02	6.883E+02	3.852E+03
626.50	9.501E+00	4.938E+03	1.238E+01	2.437E+00	-1.064E+00	2.202E+00	-2.285E-01	1.948E+00	-3.802E-01	1.549E+02	-2.105E+02	6.980E+02	3.813E+03
626.55	9.562E+00	4.934E+03	1.237E+01	2.435E+00	-1.067E+00	2.164E+00	-2.048E-01	1.916E+00	-3.872E-01	1.598E+02	-2.103E+02	7.064E+02	3.791E+03
626.60	9.736E+00	4.930E+03	1.235E+01	2.454E+00	-1.071E+00	2.109E+00	-1.771E-01	1.896E+00	-3.982E-01	1.643E+02	-2.102E+02	7.154E+02	3.802E+03
626.65	9.651E+00	4.927E+03	1.233E+01	2.492E+00	-1.076E+00	2.049E+00	-1.483E-01	1.889E+00	-4.165E-01	1.612E+02	-2.069E+02	7.229E+02	3.818E+03
626.70	9.694E+00	4.924E+03	1.230E+01	2.542E+00	-1.081E+00	1.998E+00	-1.217E-01	1.899E+00	-4.462E-01	1.614E+02	-2.023E+02	7.282E+02	3.816E+03
626.75	9.712E+00	4.921E+03	1.229E+01	2.598E+00	-1.082E+00	1.957E+00	-9.484E-02	1.933E+00	-4.864E-01	1.662E+02	-1.944E+02	7.351E+02	3.831E+03
626.80	9.814E+00	4.919E+03	1.228E+01	2.655E+00	-1.074E+00	1.924E+00	-6.461E-02	1.992E+00	-5.328E-01	1.709E+02	-1.881E+02	7.406E+02	3.889E+03
626.85	9.901E+00	4.920E+03	1.226E+01	2.711E+00	-1.059E+00	1.895E+00	-3.509E-02	2.076E+00	-5.867E-01	1.736E+02	-1.824E+02	7.446E+02	3.944E+03
626.90	9.862E+00	4.922E+03	1.224E+01	2.756E+00	-1.040E+00	1.871E+00	-1.122E-02	2.181E+00	-6.501E-01	1.764E+02	-1.731E+02	7.501E+02	3.950E+03
626.95	9.693E+00	4.923E+03	1.222E+01	2.793E+00	-1.019E+00	1.853E+00	8.129E-03	2.297E+00	-7.194E-01	1.864E+02	-1.631E+02	7.571E+02	3.936E+03
627.00	9.666E+00	4.924E+03	1.222E+01	2.823E+00	-9.914E-01	1.844E+00	2.697E-02	2.417E+00	-7.879E-01	1.950E+02	-1.546E+02	7.635E+02	3.948E+03
627.05	9.996E+00	4.925E+03	1.221E+01	2.849E+00	-9.586E-01	1.843E+00	4.536E-02	2.526E+00	-8.525E-01	1.993E+02	-1.453E+02	7.686E+02	3.973E+03
627.10	1.011E+01	4.926E+03	1.219E+01	2.872E+00	-9.247E-01	1.838E+00	6.117E-02	2.618E+00	-9.128E-01	2.013E+02	-1.356E+02	7.712E+02	3.973E+03
627.15	1.031E+01	4.927E+03	1.218E+01	2.886E+00	-8.918E-01	1.826E+00	7.359E-02	2.683E+00	-9.658E-01	2.020E+02	-1.224E+02	7.741E+02	3.957E+03
627.20	1.029E+01	4.927E+03	1.217E+01	2.892E+00	-8.587E-01	1.804E+00	8.310E-02	2.717E+00	-1.006E+00	1.989E+02	-1.094E+02	7.772E+02	3.963E+03
627.25	1.034E+01	4.928E+03	1.216E+01	2.891E+00	-8.258E-01	1.780E+00	8.701E-02	2.729E+00	-1.034E+00	1.895E+02	-9.906E+01	7.792E+02	3.987E+03
627.30	1.061E+01	4.929E+03	1.215E+01	2.877E+00	-7.955E-01	1.764E+00	8.132E-02	2.730E+00	-1.053E+00	1.819E+02	-8.665E+01	7.826E+02	4.001E+03
627.35	1.045E+01	4.930E+03	1.213E+01	2.849E+00	-7.669E-01	1.765E+00	6.350E-02	2.729E+00	-1.069E+00	1.729E+02	-7.313E+01	7.850E+02	3.986E+03
627.40	1.017E+01	4.930E+03	1.211E+01	2.804E+00	-7.367E-01	1.787E+00	3.280E-02	2.734E+00	-1.081E+00	1.640E+02	-6.220E+01	7.853E+02	3.948E+03
627.45	1.068E+01	4.929E+03	1.210E+01	2.740E+00	-7.012E-01	1.837E+00	-7.095E-03	2.742E+00	-1.089E+00	1.593E+02	-4.891E+01	7.850E+02	3.933E+03
627.50	1.080E+01	4.927E+03	1.209E+01	2.656E+00	-6.571E-01	1.913E+00	-5.210E-02	2.746E+00	-1.089E+00	1.566E+02	-3.829E+01	7.833E+02	3.964E+03
627.55	1.074E+01	4.927E+03	1.208E+01	2.562E+00	-6.080E-01	2.004E+00	-1.017E-01	2.745E+00	-1.084E+00	1.578E+02	-2.977E+01	7.812E+02	3.998E+03
627.60	1.087E+01	4.928E+03	1.207E+01	2.466E+00	-5.576E-01	2.095E+00	-1.513E-01	2.738E+00	-1.077E+00	1.599E+02	-1.943E+01	7.794E+02	4.026E+03
627.65	1.071E+01	4.930E+03	1.205E+01	2.380E+00	-5.075E-01	2.177E+00	-1.974E-01	2.725E+00	-1.069E+00	1.582E+02	-7.339E+00	7.773E+02	4.039E+03
627.70	1.082E+01	4.931E+03	1.204E+01	2.310E+00	-4.585E-01	2.243E+00	-2.392E-01	2.707E+00	-1.062E+00	1.559E+02	3.467E+00	7.747E+02	4.029E+03
627.75	1.093E+01	4.931E+03	1.202E+01	2.263E+00	-4.121E-01	2.304E+00	-2.772E-01	2.686E+00	-1.059E+00	1.527E+02	1.507E+01	7.707E+02	4.008E+03
627.80	1.106E+01	4.931E+03	1.201E+01	2.239E+00	-3.695E-01	2.369E+00	-3.129E-01	2.670E+00	-1.061E+00	1.486E+02	2.702E+01	7.639E+02	3.983E+03
627.85	1.092E+01	4.929E+03	1.199E+01	2.229E+00	-3.310E-01	2.439E+00	-3.480E-01	2.669E+00	-1.071E+00	1.462E+02	3.774E+01	7.576E+02	3.953E+03
627.90	1.078E+01	4.926E+03	1.197E+01	2.224E+00	-2.969E-01	2.505E+00	-3.811E-01	2.678E+00	-1.086E+00	1.437E+02	4.738E+01	7.514E+02	3.927E+03
627.95	1.116E+01	4.922E+03	1.195E+01	2.224E+00	-2.694E-01	2.557E+00	-4.108E-01	2.691E+00	-1.105E+00	1.451E+02	5.813E+01	7.448E+02	3.909E+03
628.00	1.131E+01	4.918E+03	1.194E+01	2.229E+00	-2.463E-01	2.577E+00	-4.331E-01	2.700E+00	-1.122E+00	1.480E+02	6.808E+01	7.397E+02	3.927E+03
628.05	1.124E+01	4.916E+03	1.192E+01	2.236E+00	-2.233E-01	2.555E+00	-4.442E-01	2.712E+00	-1.135E+00	1.524E+02	7.570E+01	7.336E+02	3.994E+03
628.10	1.160E+01	4.917E+03	1.191E+01	2.241E+00	-2.000E-01	2.495E+00	-4.466E-01	2.731E+00	-1.144E+00	1.573E+02	8.279E+01	7.241E+02	4.066E+03
628.15	1.176E+01	4.919E+03	1.189E+01	2.241E+00	-1.779E-01	2.416E+00	-4.471E-01	2.770E+00	-1.152E+00	1.601E+02	8.898E+01	7.144E+02	4.104E+03
628.20	1.193E+01	4.922E+03	1.187E+01	2.238E+00	-1.589E-01	2.338E+00	-4.512E-01	2.831E+00	-1.158E+00	1.631E+02	9.462E+01	7.041E+02	4.093E+03
628.25	1.212E+01	4.923E+03	1.186E+01	2.235E+00	-1.439E-01	2.283E+00	-4.617E-01	2.906E+00	-1.160E+00	1.648E+02	1.003E+02	6.928E+02	4.063E+03
628.30	1.222E+01	4.923E+03	1.184E+01	2.241E+00	-1.332E-01	2.258E+00	-4.800E-01	2.985E+00	-1.155E+00	1.638E+02	1.052E+02	6.833E+02	4.035E+03
628.35	1.186E+01	4.922E+03	1.183E+01	2.261E+00	-1.287E-01	2.269E+00	-5.090E-01	3.053E+00	-1.141E+00	1.638E+02	1.099E+02	6.743E+02	4.004E+03
628.40	1.185E+01	4.919E+03	1.181E+01	2.296E+00	-1.284E-01	2.321E+00	-5.495E-01	3.100E+00	-1.119E+00	1.620E+02	1.162E+02	6.634E+02	3.989E+03
628.45	1.149E+01	4.917E+03	1.180E+01	2.341E+00	-1.283E-01	2.405E+00	-5.986E-01	3.119E+00	-1.088E+00	1.598E+02	1.200E+02	6.514E+02	4.003E+03
628.50	1.125E+01	4.915E+03	1.178E+01	2.390E+00	-1.278E-01	2.510E+00	-6.540E-01	3.114E+00	-1.050E+00	1.597E+02	1.234E+02	6.418E+02	4.037E+03
628.55	1.128E+01	4.915E+03	1.177E+01	2.445E+00	-1.263E-01	2.622E+00	-7.114E-01	3.098E+00	-1.011E+00	1.551E+02	1.271E+02	6.280E+02	4.090E+03
628.60	1.132E+01	4.917E+03	1.176E+01	2.499E+00	-1.239E-01	2.729E+00	-7.678E-01	3.089E+00	-9.782E-01	1.518E+02	1.317E+02	6.149E+02	4.143E+03
628.65	1.126E+01	4.921E+03	1.175E+01	2.538E+00	-1.178E-01	2.827E+00	-8.204E-01	3.102E+00	-9.523E-01	1.532E+02	1.356E+02	6.055E+02	4.193E+03
628.70	1.126E+01	4.925E+03	1.174E+01	2.559E+00	-1.064E-01	2.920E+00	-8.691E-01	3.135E+00	-9.348E-01	1.540E+02	1.391E+02	5.947E+02	4.226E+03
628.75	1.073E+01	4.930E+03	1.173E+01	2.559E+00	-8.999E-02	3.018E+00	-9.170E-01	3.181E+00	-9.239E-01	1.566E+02	1.415E+02	5.820E+02	4.225E+03
628.80	1.029E+01	4.934E+03	1.172E+01	2.539E+00	-6.968E-02	3.126E+00	-9.644E-01	3.232E+00	-9.155E-01	1.593E+02	1.433E+02	5.721E+02	4.197E+03
628.85	1.024E+01	4.936E+03	1.172E+01	2.505E+00	-4.837E-02	3.236E+00	-1.010E+00	3.272E+00	-9.063E-01	1.599E+02	1.441E+02	5.611E+02	4.161E+03
628.90	1.037E+01	4.936E+03	1.171E+01	2.467E+00	-2.946E-02	3.339E+00	-1.051E+00	3.293E+00	-8.937E-01	1.599E+02	1.426E+02	5.485E+02	4.137E+03
628.95	1.005E+01	4.936E+03	1.170E+01	2.431E+00	-1.609E-02	3.433E+00	-1.085E+00	3.295E+00	-8.756E-01	1.544E+02	1.443E+02	5.391E+02	4.139E+03
629.00	1.017E+01	4.936E+03	1.169E+01	2.401E+00	-1.045E-02	3.509E+00	-1.113E+00	3.288E+00	-8.531E-01	1.516E+02	1.411E+02	5.270E+02	4.159E+03
629.05	1.002E+01	4.936E+03	1.168E+01	2.380E+00	-1.506E-02	3.565E+00	-1.136E+00	3.284E+00	-8.283E-01	1.481E+02	1.403E+02	5.183E+02	4.172E+03
629.10	9.792E+00	4.937E+03	1.167E+01	2.378E+00	-3.144E-02	3.598E+00	-1.155E+00	3.294E+00	-8.021E-01	1.490E+02	1.348E+02	5.078E+02	4.174E+03
629.15	9.520E+00	4.938E+03	1.166E+01	2.400E+00	-5.851E-02	3.611E+00	-1.170E+00	3.315E+00	-7.714E-01	1.521E+02	1.287E+02	4.994E+02	4.179E+03
629.20	9.535E+00	4.938E+03	1.165E+01	2.447E+00	-9.341E-02	3.612E+00	-1.182E+00	3.329E+00	-7.316E-01	1.542E+02	1.195E+02	4.915E+02	4.198E+03
629.25	9.503E+00	4.940E+03	1.164E+01	2.513E+00	-1.346E-01	3.609E+00	-1.192E+00	3.315E+00	-6.818E-01	1.543E+02	1.103E+02	4.824E+02	4.212E+03
629.30	9.348E+00	4.941E+03	1.163E+01	2.594E+00	-1.805E-01	3.607E+00	-1.202E+00	3.257E+00	-6.219E-01	1.577E+02	1.006E+02	4.730E+02	4.209E+03
629.35	9.168E+00	4.942E+03	1.162E+01	2.686E+00	-2.282E-01	3.616E+00	-1.213E+00	3.150E+00	-5.529E-01	1.610E+02	9.297E+01	4.642E+02	4.197E+03
629.40	9.285E+00	4.942E+03	1.162E+01	2.783E+00	-2.736E-01	3.639E+00	-1.224E+00	3.006E+00	-4.784E-01	1.643E+02	8.410E+01	4.537E+02	4.195E+03
629.45	9.461E+00	4.942E+03	1.160E+01	2.873E+00	-3.135E-01	3.683E+00	-1.236E+00	2.865E+00	-4.068E-01	1.659E+02	7.496E+01	4.430E+02	4.200E+03
629.50	9.513E+00	4.942E+03	1.159E+01	2.946E+00	-3.470E-01	3.737E+00	-1.251E+00	2.762E+00	-3.480E-01	1.734E+02	6.641E+01	4.343E+02	4.201E+03
629.55	9.449E+00	4.942E+03	1.159E+01	2.997E+00	-3.718E-01	3.784E+00	-1.263E+00	2.721E+00	-3.068E-01	1.771E+02	5.680E+01	4.259E+02	4.211E+03
629.60	9.406E+00	4.942E+03	1.157E+01	3.028E+00	-3.901E-01	3.810E+00	-1.271E+00	2.736E+00	-2.832E-01	1.807E+02	4.739E+01	4.190E+02	4.216E+03
629.65	9.495E+00	4.942E+03	1.156E+01	3.047E+00	-4.046E-01	3.818E+00	-1.273E+00	2.783E+00	-2.731E-01	1.813E+02	4.078E+01	4.131E+02	4.217E+03
629.70	9.348E+00	4.943E+03	1.156E+01	3.071E+00	-4.181E-01	3.806E+00	-1.269E+00	2.838E+00	-2.698E-01	1.816E+02	3.188E+01	4.067E+02	4.228E+03
629.75	9.096E+00	4.943E+03	1.155E+01	3.108E+00	-4.338E-01	3.785E+00	-1.258E+00	2.884E+00	-2.683E-01	1.826E+02	2.477E+01	4.016E+02	4.249E+03
629.80	9.363E+00	4.945E+03	1.155E+01	3.153E+00	-4.518E-01	3.769E+00	-1.242E+00	2.918E+00	-2.651E-01	1.798E+02	1.603E+01	3.965E+02	4.284E+03
629.85	9.886E+00	4.948E+03	1.154E+01	3.200E+00	-4.732E-01	3.764E+00	-1.225E+00	2.940E+00	-2.592E-01	1.764E+02	7.998E+00	3.926E+02	4.314E+03
629.90	9.812E+00	4.951E+03	1.153E+01	3.243E+00	-4.988E-01	3.775E+00	-1.208E+00	2.952E+00	-2.501E-01	1.749E+02	-1.304E+00	3.902E+02	4.324E+03
629.95	9.860E+00	4.953E+03	1.153E+01	3.278E+00	-5.283E-01	3.811E+00	-1.194E+00	2.960E+00	-2.388E-01	1.745E+02	-9.468E+00	3.891E+02	4.316E+03
630.00	1.012E+01	4.956E+03	1.153E+01	3.309E+00	-5.593E-01	3.868E+00	-1.182E+00	2.988E+00	-2.267E-01	1.777E+02	-2.062E+01	3.889E+02	4.323E+03
