
"These predictions were generated by FAST (v6.10a-jmj, 21-Feb-2007) on 01-Apr-2007 at 16:56:40."
"The aerodynamic calculations were made by AeroDyn (12.60i-pjm, 16-Nov-2006)."

 NREL 5.0 MW Baseline Wind Turbine for Use in Offshore Analysis.

    Time	WindVxi	GenPwr	RotSpeed	OoPDefl1	IPDefl1	OoPDefl2	IPDefl2	OoPDefl3	IPDefl3	RootFxc1	RootFyc1	RootFzc1	RotTorq
   (sec)	(m/sec)	(kW)	(rpm)	(m)	(m)	(m)	(m)	(m)	(m)	(kN)	(kN)	(kN)	(kN·m)
30.00	6.843E+00	1.672E+03	8.958E+00	2.819E+00	-3.907E-03	3.800E+00	-2.414E-01	2.538E+00	-6.785E-01	1.530E+02	9.052E+01	4.695E+02	1.940E+03
30.05	6.613E+00	1.671E+03	8.960E+00	2.877E+00	1.015E-02	3.820E+00	-2.636E-01	2.510E+00	-6.711E-01	1.508E+02	9.727E+01	4.634E+02	1.937E+03
30.10	6.352E+00	1.671E+03	8.960E+00	2.925E+00	2.702E-02	3.830E+00	-2.838E-01	2.494E+00	-6.649E-01	1.499E+02	1.043E+02	4.567E+02	1.915E+03
30.15	6.427E+00	1.671E+03	8.959E+00	2.967E+00	4.522E-02	3.835E+00	-3.036E-01	2.489E+00	-6.594E-01	1.492E+02	1.109E+02	4.512E+02	1.881E+03
30.20	6.511E+00	1.670E+03	8.958E+00	3.006E+00	6.272E-02	3.842E+00	-3.240E-01	2.490E+00	-6.542E-01	1.484E+02	1.176E+02	4.452E+02	1.847E+03
30.25	6.510E+00	1.668E+03	8.957E+00	3.041E+00	7.832E-02	3.853E+00	-3.454E-01	2.496E+00	-6.491E-01	1.483E+02	1.241E+02	4.381E+02	1.827E+03
30.30	6.689E+00	1.667E+03	8.957E+00	3.065E+00	9.232E-02	3.864E+00	-3.674E-01	2.503E+00	-6.427E-01	1.502E+02	1.289E+02	4.323E+02	1.832E+03
30.35	6.911E+00	1.665E+03	8.956E+00	3.075E+00	1.045E-01	3.866E+00	-3.895E-01	2.512E+00	-6.355E-01	1.534E+02	1.329E+02	4.265E+02	1.853E+03
30.40	6.986E+00	1.663E+03	8.954E+00	3.073E+00	1.140E-01	3.854E+00	-4.114E-01	2.526E+00	-6.286E-01	1.558E+02	1.374E+02	4.193E+02	1.876E+03
30.45	6.826E+00	1.661E+03	8.953E+00	3.065E+00	1.210E-01	3.820E+00	-4.323E-01	2.551E+00	-6.219E-01	1.580E+02	1.413E+02	4.123E+02	1.894E+03
30.50	6.597E+00	1.660E+03	8.956E+00	3.057E+00	1.266E-01	3.767E+00	-4.505E-01	2.591E+00	-6.148E-01	1.591E+02	1.445E+02	4.062E+02	1.910E+03
30.55	6.540E+00	1.660E+03	8.959E+00	3.051E+00	1.324E-01	3.699E+00	-4.647E-01	2.642E+00	-6.064E-01	1.564E+02	1.469E+02	3.986E+02	1.926E+03
30.60	6.533E+00	1.660E+03	8.959E+00	3.041E+00	1.388E-01	3.624E+00	-4.758E-01	2.696E+00	-5.966E-01	1.503E+02	1.492E+02	3.901E+02	1.927E+03
30.65	6.581E+00	1.660E+03	8.958E+00	3.017E+00	1.461E-01	3.552E+00	-4.857E-01	2.747E+00	-5.859E-01	1.456E+02	1.510E+02	3.820E+02	1.901E+03
30.70	6.450E+00	1.660E+03	8.956E+00	2.974E+00	1.550E-01	3.490E+00	-4.958E-01	2.788E+00	-5.740E-01	1.421E+02	1.531E+02	3.744E+02	1.859E+03
30.75	6.402E+00	1.659E+03	8.955E+00	2.909E+00	1.660E-01	3.445E+00	-5.071E-01	2.819E+00	-5.610E-01	1.379E+02	1.554E+02	3.658E+02	1.821E+03
30.80	6.473E+00	1.657E+03	8.951E+00	2.823E+00	1.789E-01	3.421E+00	-5.211E-01	2.842E+00	-5.472E-01	1.352E+02	1.570E+02	3.575E+02	1.793E+03
30.85	6.570E+00	1.655E+03	8.946E+00	2.722E+00	1.927E-01	3.414E+00	-5.384E-01	2.859E+00	-5.332E-01	1.345E+02	1.587E+02	3.505E+02	1.780E+03
30.90	6.850E+00	1.652E+03	8.941E+00	2.615E+00	2.067E-01	3.418E+00	-5.583E-01	2.868E+00	-5.187E-01	1.329E+02	1.589E+02	3.419E+02	1.785E+03
30.95	7.033E+00	1.649E+03	8.934E+00	2.511E+00	2.189E-01	3.425E+00	-5.810E-01	2.866E+00	-5.033E-01	1.288E+02	1.599E+02	3.341E+02	1.795E+03
31.00	6.956E+00	1.645E+03	8.927E+00	2.420E+00	2.275E-01	3.432E+00	-6.055E-01	2.845E+00	-4.864E-01	1.229E+02	1.611E+02	3.260E+02	1.804E+03
31.05	6.773E+00	1.642E+03	8.924E+00	2.350E+00	2.324E-01	3.433E+00	-6.296E-01	2.802E+00	-4.659E-01	1.199E+02	1.604E+02	3.174E+02	1.818E+03
31.10	6.700E+00	1.639E+03	8.920E+00	2.303E+00	2.336E-01	3.427E+00	-6.513E-01	2.740E+00	-4.406E-01	1.144E+02	1.601E+02	3.103E+02	1.835E+03
31.15	6.743E+00	1.637E+03	8.916E+00	2.279E+00	2.305E-01	3.416E+00	-6.704E-01	2.664E+00	-4.119E-01	1.131E+02	1.583E+02	3.019E+02	1.844E+03
31.20	6.848E+00	1.634E+03	8.912E+00	2.277E+00	2.232E-01	3.410E+00	-6.873E-01	2.583E+00	-3.807E-01	1.147E+02	1.558E+02	2.939E+02	1.838E+03
31.25	6.890E+00	1.631E+03	8.907E+00	2.297E+00	2.123E-01	3.419E+00	-7.030E-01	2.504E+00	-3.480E-01	1.197E+02	1.527E+02	2.868E+02	1.820E+03
31.30	6.864E+00	1.629E+03	8.903E+00	2.339E+00	1.981E-01	3.450E+00	-7.185E-01	2.429E+00	-3.148E-01	1.245E+02	1.489E+02	2.789E+02	1.798E+03
31.35	6.815E+00	1.625E+03	8.899E+00	2.402E+00	1.812E-01	3.496E+00	-7.335E-01	2.360E+00	-2.820E-01	1.301E+02	1.448E+02	2.709E+02	1.780E+03
31.40	6.783E+00	1.621E+03	8.894E+00	2.485E+00	1.621E-01	3.545E+00	-7.472E-01	2.295E+00	-2.501E-01	1.334E+02	1.414E+02	2.638E+02	1.771E+03
31.45	6.818E+00	1.617E+03	8.888E+00	2.584E+00	1.412E-01	3.585E+00	-7.593E-01	2.234E+00	-2.202E-01	1.404E+02	1.358E+02	2.549E+02	1.769E+03
31.50	6.714E+00	1.613E+03	8.882E+00	2.693E+00	1.190E-01	3.606E+00	-7.691E-01	2.176E+00	-1.922E-01	1.423E+02	1.318E+02	2.469E+02	1.772E+03
31.55	6.619E+00	1.609E+03	8.876E+00	2.810E+00	9.576E-02	3.602E+00	-7.769E-01	2.124E+00	-1.670E-01	1.453E+02	1.273E+02	2.386E+02	1.773E+03
31.60	6.656E+00	1.605E+03	8.872E+00	2.928E+00	7.242E-02	3.574E+00	-7.824E-01	2.082E+00	-1.439E-01	1.480E+02	1.223E+02	2.307E+02	1.780E+03
31.65	6.711E+00	1.601E+03	8.868E+00	3.041E+00	4.992E-02	3.530E+00	-7.857E-01	2.054E+00	-1.229E-01	1.484E+02	1.173E+02	2.232E+02	1.791E+03
31.70	6.649E+00	1.597E+03	8.864E+00	3.142E+00	2.813E-02	3.481E+00	-7.880E-01	2.046E+00	-1.045E-01	1.494E+02	1.118E+02	2.159E+02	1.798E+03
31.75	6.674E+00	1.594E+03	8.860E+00	3.226E+00	7.208E-03	3.434E+00	-7.900E-01	2.053E+00	-8.789E-02	1.532E+02	1.064E+02	2.094E+02	1.798E+03
31.80	6.707E+00	1.590E+03	8.858E+00	3.288E+00	-1.219E-02	3.392E+00	-7.913E-01	2.072E+00	-7.192E-02	1.549E+02	1.013E+02	2.026E+02	1.796E+03
31.85	6.629E+00	1.587E+03	8.857E+00	3.331E+00	-2.996E-02	3.348E+00	-7.905E-01	2.096E+00	-5.522E-02	1.563E+02	9.564E+01	1.962E+02	1.795E+03
31.90	6.620E+00	1.584E+03	8.854E+00	3.357E+00	-4.728E-02	3.293E+00	-7.874E-01	2.124E+00	-3.774E-02	1.616E+02	8.885E+01	1.907E+02	1.792E+03
31.95	6.603E+00	1.581E+03	8.851E+00	3.373E+00	-6.557E-02	3.220E+00	-7.816E-01	2.155E+00	-2.026E-02	1.625E+02	8.281E+01	1.858E+02	1.784E+03
32.00	6.644E+00	1.578E+03	8.848E+00	3.388E+00	-8.604E-02	3.129E+00	-7.732E-01	2.191E+00	-3.834E-03	1.617E+02	7.608E+01	1.809E+02	1.773E+03
32.05	6.584E+00	1.575E+03	8.846E+00	3.406E+00	-1.093E-01	3.031E+00	-7.624E-01	2.238E+00	1.112E-02	1.600E+02	6.883E+01	1.767E+02	1.765E+03
32.10	6.357E+00	1.572E+03	8.846E+00	3.432E+00	-1.352E-01	2.937E+00	-7.498E-01	2.298E+00	2.438E-02	1.561E+02	6.230E+01	1.731E+02	1.767E+03
32.15	6.295E+00	1.569E+03	8.845E+00	3.464E+00	-1.629E-01	2.858E+00	-7.370E-01	2.368E+00	3.607E-02	1.518E+02	5.411E+01	1.687E+02	1.780E+03
32.20	6.252E+00	1.566E+03	8.845E+00	3.501E+00	-1.916E-01	2.800E+00	-7.254E-01	2.444E+00	4.696E-02	1.480E+02	4.601E+01	1.645E+02	1.796E+03
32.25	6.187E+00	1.564E+03	8.845E+00	3.536E+00	-2.201E-01	2.767E+00	-7.162E-01	2.517E+00	5.801E-02	1.472E+02	3.848E+01	1.612E+02	1.809E+03
32.30	6.063E+00	1.563E+03	8.847E+00	3.564E+00	-2.467E-01	2.752E+00	-7.092E-01	2.580E+00	7.014E-02	1.479E+02	3.021E+01	1.583E+02	1.819E+03
32.35	6.153E+00	1.562E+03	8.849E+00	3.585E+00	-2.707E-01	2.745E+00	-7.026E-01	2.630E+00	8.364E-02	1.510E+02	2.173E+01	1.562E+02	1.823E+03
32.40	6.313E+00	1.561E+03	8.850E+00	3.599E+00	-2.922E-01	2.736E+00	-6.952E-01	2.667E+00	9.777E-02	1.563E+02	1.442E+01	1.550E+02	1.816E+03
32.45	6.421E+00	1.560E+03	8.852E+00	3.609E+00	-3.115E-01	2.723E+00	-6.869E-01	2.695E+00	1.114E-01	1.621E+02	5.954E+00	1.535E+02	1.804E+03
32.50	6.379E+00	1.560E+03	8.853E+00	3.618E+00	-3.296E-01	2.709E+00	-6.776E-01	2.716E+00	1.241E-01	1.658E+02	-2.445E+00	1.518E+02	1.787E+03
32.55	6.222E+00	1.559E+03	8.854E+00	3.627E+00	-3.473E-01	2.700E+00	-6.677E-01	2.727E+00	1.358E-01	1.671E+02	-9.541E+00	1.506E+02	1.774E+03
32.60	6.335E+00	1.558E+03	8.855E+00	3.635E+00	-3.654E-01	2.701E+00	-6.582E-01	2.728E+00	1.468E-01	1.655E+02	-1.762E+01	1.497E+02	1.770E+03
32.65	6.366E+00	1.557E+03	8.856E+00	3.639E+00	-3.848E-01	2.714E+00	-6.495E-01	2.716E+00	1.573E-01	1.633E+02	-2.584E+01	1.495E+02	1.773E+03
32.70	6.313E+00	1.557E+03	8.857E+00	3.635E+00	-4.061E-01	2.741E+00	-6.418E-01	2.696E+00	1.673E-01	1.624E+02	-3.352E+01	1.503E+02	1.782E+03
32.75	6.257E+00	1.556E+03	8.859E+00	3.627E+00	-4.288E-01	2.780E+00	-6.348E-01	2.671E+00	1.771E-01	1.588E+02	-4.104E+01	1.516E+02	1.797E+03
32.80	6.394E+00	1.556E+03	8.862E+00	3.616E+00	-4.523E-01	2.823E+00	-6.274E-01	2.642E+00	1.869E-01	1.560E+02	-4.899E+01	1.532E+02	1.814E+03
32.85	6.481E+00	1.557E+03	8.866E+00	3.604E+00	-4.754E-01	2.862E+00	-6.180E-01	2.606E+00	1.977E-01	1.561E+02	-5.780E+01	1.548E+02	1.830E+03
32.90	6.490E+00	1.558E+03	8.869E+00	3.591E+00	-4.976E-01	2.888E+00	-6.055E-01	2.563E+00	2.101E-01	1.546E+02	-6.597E+01	1.568E+02	1.839E+03
32.95	6.554E+00	1.559E+03	8.872E+00	3.581E+00	-5.190E-01	2.901E+00	-5.902E-01	2.511E+00	2.237E-01	1.546E+02	-7.424E+01	1.588E+02	1.834E+03
33.00	6.574E+00	1.561E+03	8.873E+00	3.577E+00	-5.400E-01	2.906E+00	-5.729E-01	2.453E+00	2.376E-01	1.566E+02	-8.276E+01	1.612E+02	1.814E+03
33.05	6.591E+00	1.562E+03	8.875E+00	3.582E+00	-5.609E-01	2.905E+00	-5.542E-01	2.398E+00	2.506E-01	1.573E+02	-9.059E+01	1.642E+02	1.788E+03
33.10	6.567E+00	1.563E+03	8.874E+00	3.598E+00	-5.815E-01	2.896E+00	-5.343E-01	2.349E+00	2.613E-01	1.570E+02	-9.797E+01	1.675E+02	1.760E+03
33.15	6.448E+00	1.563E+03	8.872E+00	3.620E+00	-6.020E-01	2.876E+00	-5.135E-01	2.311E+00	2.682E-01	1.558E+02	-1.047E+02	1.710E+02	1.736E+03
33.20	6.630E+00	1.562E+03	8.869E+00	3.647E+00	-6.222E-01	2.839E+00	-4.917E-01	2.281E+00	2.708E-01	1.574E+02	-1.123E+02	1.747E+02	1.720E+03
33.25	6.817E+00	1.561E+03	8.867E+00	3.671E+00	-6.411E-01	2.784E+00	-4.682E-01	2.258E+00	2.694E-01	1.563E+02	-1.190E+02	1.788E+02	1.718E+03
33.30	6.761E+00	1.560E+03	8.864E+00	3.687E+00	-6.582E-01	2.715E+00	-4.426E-01	2.239E+00	2.642E-01	1.551E+02	-1.249E+02	1.822E+02	1.732E+03
33.35	6.819E+00	1.559E+03	8.862E+00	3.685E+00	-6.729E-01	2.631E+00	-4.157E-01	2.228E+00	2.552E-01	1.584E+02	-1.319E+02	1.862E+02	1.756E+03
33.40	6.809E+00	1.558E+03	8.861E+00	3.660E+00	-6.848E-01	2.534E+00	-3.874E-01	2.229E+00	2.427E-01	1.615E+02	-1.380E+02	1.920E+02	1.782E+03
33.45	6.790E+00	1.558E+03	8.861E+00	3.619E+00	-6.938E-01	2.431E+00	-3.573E-01	2.247E+00	2.270E-01	1.640E+02	-1.424E+02	1.965E+02	1.802E+03
33.50	6.639E+00	1.558E+03	8.861E+00	3.569E+00	-7.009E-01	2.335E+00	-3.270E-01	2.289E+00	2.091E-01	1.685E+02	-1.477E+02	2.021E+02	1.813E+03
33.55	6.531E+00	1.558E+03	8.861E+00	3.524E+00	-7.074E-01	2.255E+00	-2.972E-01	2.356E+00	1.896E-01	1.699E+02	-1.530E+02	2.095E+02	1.809E+03
33.60	6.620E+00	1.558E+03	8.860E+00	3.490E+00	-7.146E-01	2.197E+00	-2.682E-01	2.446E+00	1.692E-01	1.678E+02	-1.572E+02	2.147E+02	1.790E+03
33.65	6.716E+00	1.558E+03	8.861E+00	3.464E+00	-7.228E-01	2.161E+00	-2.403E-01	2.554E+00	1.489E-01	1.636E+02	-1.616E+02	2.198E+02	1.768E+03
33.70	6.727E+00	1.558E+03	8.859E+00	3.443E+00	-7.324E-01	2.139E+00	-2.136E-01	2.671E+00	1.299E-01	1.614E+02	-1.673E+02	2.279E+02	1.750E+03
33.75	6.808E+00	1.557E+03	8.856E+00	3.424E+00	-7.443E-01	2.123E+00	-1.879E-01	2.784E+00	1.116E-01	1.593E+02	-1.716E+02	2.350E+02	1.731E+03
33.80	6.826E+00	1.556E+03	8.855E+00	3.405E+00	-7.571E-01	2.107E+00	-1.622E-01	2.887E+00	9.449E-02	1.583E+02	-1.760E+02	2.405E+02	1.725E+03
33.85	6.844E+00	1.554E+03	8.852E+00	3.380E+00	-7.694E-01	2.089E+00	-1.371E-01	2.980E+00	7.808E-02	1.576E+02	-1.807E+02	2.488E+02	1.732E+03
33.90	6.818E+00	1.553E+03	8.849E+00	3.353E+00	-7.806E-01	2.070E+00	-1.133E-01	3.066E+00	6.041E-02	1.575E+02	-1.840E+02	2.563E+02	1.742E+03
33.95	6.900E+00	1.551E+03	8.848E+00	3.327E+00	-7.897E-01	2.052E+00	-9.055E-02	3.148E+00	4.120E-02	1.566E+02	-1.867E+02	2.622E+02	1.757E+03
34.00	7.052E+00	1.550E+03	8.849E+00	3.305E+00	-7.961E-01	2.039E+00	-6.894E-02	3.228E+00	2.122E-02	1.609E+02	-1.910E+02	2.697E+02	1.781E+03
34.05	6.942E+00	1.550E+03	8.847E+00	3.295E+00	-8.004E-01	2.035E+00	-4.870E-02	3.302E+00	1.965E-04	1.602E+02	-1.927E+02	2.791E+02	1.796E+03
34.10	6.816E+00	1.549E+03	8.846E+00	3.299E+00	-8.033E-01	2.040E+00	-2.978E-02	3.367E+00	-2.213E-02	1.570E+02	-1.939E+02	2.835E+02	1.793E+03
34.15	6.992E+00	1.549E+03	8.848E+00	3.312E+00	-8.039E-01	2.054E+00	-1.227E-02	3.418E+00	-4.374E-02	1.571E+02	-1.949E+02	2.921E+02	1.785E+03
34.20	7.056E+00	1.549E+03	8.846E+00	3.323E+00	-8.015E-01	2.074E+00	4.455E-03	3.450E+00	-6.415E-02	1.550E+02	-1.951E+02	3.016E+02	1.774E+03
34.25	7.087E+00	1.548E+03	8.844E+00	3.329E+00	-7.968E-01	2.100E+00	1.971E-02	3.464E+00	-8.496E-02	1.536E+02	-1.948E+02	3.068E+02	1.751E+03
34.30	7.070E+00	1.547E+03	8.843E+00	3.326E+00	-7.907E-01	2.133E+00	3.276E-02	3.463E+00	-1.062E-01	1.556E+02	-1.942E+02	3.151E+02	1.732E+03
34.35	6.956E+00	1.546E+03	8.843E+00	3.311E+00	-7.831E-01	2.174E+00	4.440E-02	3.453E+00	-1.281E-01	1.601E+02	-1.929E+02	3.256E+02	1.726E+03
34.40	7.013E+00	1.545E+03	8.844E+00	3.287E+00	-7.737E-01	2.224E+00	5.615E-02	3.436E+00	-1.503E-01	1.633E+02	-1.925E+02	3.324E+02	1.740E+03
34.45	6.893E+00	1.544E+03	8.844E+00	3.253E+00	-7.632E-01	2.284E+00	6.763E-02	3.415E+00	-1.721E-01	1.644E+02	-1.916E+02	3.401E+02	1.766E+03
34.50	6.701E+00	1.543E+03	8.842E+00	3.214E+00	-7.532E-01	2.352E+00	7.797E-02	3.394E+00	-1.938E-01	1.665E+02	-1.897E+02	3.498E+02	1.786E+03
34.55	6.664E+00	1.543E+03	8.841E+00	3.173E+00	-7.441E-01	2.423E+00	8.733E-02	3.374E+00	-2.153E-01	1.629E+02	-1.874E+02	3.575E+02	1.790E+03
34.60	6.654E+00	1.542E+03	8.842E+00	3.128E+00	-7.357E-01	2.498E+00	9.598E-02	3.362E+00	-2.359E-01	1.579E+02	-1.855E+02	3.637E+02	1.785E+03
34.65	6.763E+00	1.542E+03	8.845E+00	3.074E+00	-7.271E-01	2.576E+00	1.043E-01	3.356E+00	-2.542E-01	1.563E+02	-1.835E+02	3.730E+02	1.783E+03
34.70	6.885E+00	1.542E+03	8.846E+00	3.010E+00	-7.177E-01	2.657E+00	1.123E-01	3.357E+00	-2.705E-01	1.555E+02	-1.818E+02	3.822E+02	1.779E+03
34.75	7.030E+00	1.543E+03	8.845E+00	2.942E+00	-7.077E-01	2.737E+00	1.197E-01	3.361E+00	-2.858E-01	1.511E+02	-1.800E+02	3.882E+02	1.769E+03
34.80	7.117E+00	1.542E+03	8.845E+00	2.876E+00	-6.984E-01	2.812E+00	1.257E-01	3.361E+00	-3.002E-01	1.507E+02	-1.771E+02	3.966E+02	1.755E+03
34.85	7.161E+00	1.542E+03	8.844E+00	2.824E+00	-6.900E-01	2.878E+00	1.303E-01	3.352E+00	-3.142E-01	1.488E+02	-1.728E+02	4.055E+02	1.743E+03
34.90	7.073E+00	1.542E+03	8.847E+00	2.789E+00	-6.811E-01	2.931E+00	1.345E-01	3.328E+00	-3.277E-01	1.457E+02	-1.702E+02	4.111E+02	1.746E+03
34.95	7.014E+00	1.541E+03	8.848E+00	2.768E+00	-6.710E-01	2.974E+00	1.382E-01	3.294E+00	-3.410E-01	1.409E+02	-1.664E+02	4.178E+02	1.764E+03
35.00	7.006E+00	1.541E+03	8.848E+00	2.755E+00	-6.593E-01	3.003E+00	1.412E-01	3.256E+00	-3.561E-01	1.393E+02	-1.615E+02	4.249E+02	1.782E+03
35.05	6.925E+00	1.541E+03	8.849E+00	2.741E+00	-6.446E-01	3.018E+00	1.447E-01	3.222E+00	-3.736E-01	1.396E+02	-1.568E+02	4.310E+02	1.795E+03
35.10	6.973E+00	1.542E+03	8.851E+00	2.726E+00	-6.264E-01	3.013E+00	1.500E-01	3.197E+00	-3.935E-01	1.423E+02	-1.518E+02	4.368E+02	1.801E+03
35.15	6.989E+00	1.543E+03	8.852E+00	2.714E+00	-6.055E-01	2.988E+00	1.572E-01	3.182E+00	-4.163E-01	1.468E+02	-1.451E+02	4.436E+02	1.797E+03
35.20	7.168E+00	1.544E+03	8.854E+00	2.713E+00	-5.830E-01	2.943E+00	1.666E-01	3.182E+00	-4.424E-01	1.507E+02	-1.385E+02	4.496E+02	1.787E+03
35.25	7.081E+00	1.545E+03	8.857E+00	2.725E+00	-5.597E-01	2.882E+00	1.780E-01	3.200E+00	-4.714E-01	1.532E+02	-1.326E+02	4.545E+02	1.778E+03
35.30	6.861E+00	1.545E+03	8.858E+00	2.749E+00	-5.368E-01	2.812E+00	1.903E-01	3.235E+00	-5.026E-01	1.528E+02	-1.254E+02	4.596E+02	1.771E+03
35.35	6.643E+00	1.546E+03	8.857E+00	2.778E+00	-5.153E-01	2.738E+00	2.024E-01	3.279E+00	-5.350E-01	1.519E+02	-1.179E+02	4.645E+02	1.760E+03
35.40	6.762E+00	1.546E+03	8.856E+00	2.805E+00	-4.948E-01	2.662E+00	2.135E-01	3.322E+00	-5.658E-01	1.490E+02	-1.106E+02	4.686E+02	1.749E+03
35.45	6.976E+00	1.546E+03	8.855E+00	2.823E+00	-4.755E-01	2.586E+00	2.231E-01	3.355E+00	-5.929E-01	1.470E+02	-1.032E+02	4.729E+02	1.743E+03
35.50	7.088E+00	1.546E+03	8.854E+00	2.825E+00	-4.572E-01	2.514E+00	2.298E-01	3.371E+00	-6.150E-01	1.463E+02	-9.552E+01	4.774E+02	1.739E+03
35.55	7.100E+00	1.546E+03	8.854E+00	2.807E+00	-4.391E-01	2.451E+00	2.329E-01	3.368E+00	-6.317E-01	1.477E+02	-8.892E+01	4.813E+02	1.745E+03
35.60	7.062E+00	1.545E+03	8.855E+00	2.768E+00	-4.204E-01	2.404E+00	2.319E-01	3.352E+00	-6.432E-01	1.511E+02	-8.222E+01	4.852E+02	1.763E+03
35.65	7.229E+00	1.545E+03	8.855E+00	2.716E+00	-4.010E-01	2.383E+00	2.256E-01	3.330E+00	-6.511E-01	1.532E+02	-7.497E+01	4.886E+02	1.782E+03
35.70	7.484E+00	1.546E+03	8.855E+00	2.660E+00	-3.809E-01	2.393E+00	2.137E-01	3.314E+00	-6.575E-01	1.519E+02	-6.776E+01	4.912E+02	1.793E+03
35.75	7.599E+00	1.546E+03	8.856E+00	2.609E+00	-3.602E-01	2.442E+00	1.973E-01	3.309E+00	-6.637E-01	1.493E+02	-6.034E+01	4.933E+02	1.796E+03
35.80	7.456E+00	1.547E+03	8.858E+00	2.569E+00	-3.385E-01	2.526E+00	1.780E-01	3.315E+00	-6.707E-01	1.407E+02	-5.185E+01	4.950E+02	1.793E+03
35.85	7.507E+00	1.548E+03	8.858E+00	2.537E+00	-3.154E-01	2.635E+00	1.576E-01	3.326E+00	-6.792E-01	1.315E+02	-4.325E+01	4.963E+02	1.784E+03
35.90	7.583E+00	1.549E+03	8.857E+00	2.502E+00	-2.906E-01	2.754E+00	1.371E-01	3.332E+00	-6.899E-01	1.243E+02	-3.497E+01	4.971E+02	1.765E+03
35.95	7.579E+00	1.549E+03	8.856E+00	2.455E+00	-2.636E-01	2.870E+00	1.176E-01	3.329E+00	-7.028E-01	1.206E+02	-2.639E+01	4.978E+02	1.744E+03
36.00	7.578E+00	1.549E+03	8.855E+00	2.393E+00	-2.342E-01	2.973E+00	1.004E-01	3.317E+00	-7.172E-01	1.199E+02	-1.712E+01	4.985E+02	1.731E+03
36.05	7.655E+00	1.548E+03	8.854E+00	2.320E+00	-2.026E-01	3.057E+00	8.558E-02	3.299E+00	-7.323E-01	1.210E+02	-8.729E+00	4.990E+02	1.728E+03
36.10	7.776E+00	1.547E+03	8.852E+00	2.240E+00	-1.698E-01	3.122E+00	7.282E-02	3.275E+00	-7.475E-01	1.237E+02	-5.659E-01	4.990E+02	1.735E+03
36.15	7.707E+00	1.546E+03	8.849E+00	2.158E+00	-1.370E-01	3.170E+00	6.095E-02	3.252E+00	-7.623E-01	1.270E+02	7.921E+00	4.986E+02	1.743E+03
36.20	7.634E+00	1.545E+03	8.846E+00	2.080E+00	-1.054E-01	3.203E+00	4.892E-02	3.227E+00	-7.751E-01	1.264E+02	1.639E+01	4.978E+02	1.749E+03
36.25	7.611E+00	1.545E+03	8.843E+00	2.012E+00	-7.614E-02	3.222E+00	3.607E-02	3.194E+00	-7.841E-01	1.241E+02	2.513E+01	4.962E+02	1.751E+03
36.30	7.517E+00	1.544E+03	8.840E+00	1.958E+00	-4.997E-02	3.228E+00	2.165E-02	3.153E+00	-7.881E-01	1.209E+02	3.270E+01	4.944E+02	1.745E+03
36.35	7.498E+00	1.543E+03	8.836E+00	1.916E+00	-2.723E-02	3.221E+00	5.448E-03	3.102E+00	-7.870E-01	1.161E+02	4.027E+01	4.924E+02	1.732E+03
36.40	7.607E+00	1.541E+03	8.832E+00	1.883E+00	-7.457E-03	3.202E+00	-1.206E-02	3.043E+00	-7.810E-01	1.112E+02	4.885E+01	4.896E+02	1.717E+03
36.45	7.754E+00	1.539E+03	8.828E+00	1.857E+00	1.040E-02	3.169E+00	-3.061E-02	2.979E+00	-7.703E-01	1.094E+02	5.563E+01	4.868E+02	1.707E+03
36.50	7.737E+00	1.537E+03	8.823E+00	1.842E+00	2.626E-02	3.127E+00	-5.025E-02	2.913E+00	-7.565E-01	1.097E+02	6.156E+01	4.839E+02	1.701E+03
36.55	7.630E+00	1.534E+03	8.819E+00	1.844E+00	3.943E-02	3.081E+00	-7.116E-02	2.846E+00	-7.415E-01	1.112E+02	6.819E+01	4.799E+02	1.701E+03
36.60	7.627E+00	1.532E+03	8.816E+00	1.870E+00	5.001E-02	3.035E+00	-9.342E-02	2.781E+00	-7.263E-01	1.132E+02	7.513E+01	4.759E+02	1.708E+03
36.65	7.829E+00	1.529E+03	8.815E+00	1.926E+00	5.899E-02	2.992E+00	-1.158E-01	2.721E+00	-7.116E-01	1.160E+02	8.085E+01	4.721E+02	1.728E+03
36.70	7.875E+00	1.527E+03	8.812E+00	2.012E+00	6.683E-02	2.960E+00	-1.374E-01	2.667E+00	-6.982E-01	1.163E+02	8.743E+01	4.665E+02	1.749E+03
36.75	7.637E+00	1.525E+03	8.807E+00	2.121E+00	7.332E-02	2.941E+00	-1.588E-01	2.624E+00	-6.879E-01	1.185E+02	9.337E+01	4.615E+02	1.753E+03
36.80	7.470E+00	1.524E+03	8.805E+00	2.248E+00	7.891E-02	2.936E+00	-1.792E-01	2.597E+00	-6.810E-01	1.205E+02	9.986E+01	4.561E+02	1.742E+03
36.85	7.428E+00	1.522E+03	8.805E+00	2.386E+00	8.446E-02	2.946E+00	-1.971E-01	2.584E+00	-6.767E-01	1.241E+02	1.065E+02	4.494E+02	1.731E+03
36.90	7.646E+00	1.520E+03	8.802E+00	2.528E+00	9.013E-02	2.969E+00	-2.127E-01	2.582E+00	-6.741E-01	1.290E+02	1.119E+02	4.430E+02	1.723E+03
36.95	7.750E+00	1.518E+03	8.799E+00	2.672E+00	9.464E-02	2.999E+00	-2.269E-01	2.586E+00	-6.732E-01	1.360E+02	1.169E+02	4.381E+02	1.712E+03
37.00	7.610E+00	1.516E+03	8.797E+00	2.815E+00	9.738E-02	3.033E+00	-2.398E-01	2.590E+00	-6.736E-01	1.430E+02	1.221E+02	4.306E+02	1.703E+03
37.05	7.590E+00	1.513E+03	8.793E+00	2.952E+00	9.853E-02	3.068E+00	-2.525E-01	2.596E+00	-6.744E-01	1.483E+02	1.273E+02	4.231E+02	1.696E+03
37.10	7.773E+00	1.511E+03	8.791E+00	3.077E+00	9.882E-02	3.101E+00	-2.661E-01	2.605E+00	-6.744E-01	1.548E+02	1.314E+02	4.166E+02	1.695E+03
37.15	7.942E+00	1.508E+03	8.790E+00	3.185E+00	9.907E-02	3.129E+00	-2.809E-01	2.623E+00	-6.731E-01	1.595E+02	1.349E+02	4.089E+02	1.707E+03
37.20	7.950E+00	1.506E+03	8.789E+00	3.273E+00	9.951E-02	3.153E+00	-2.983E-01	2.654E+00	-6.704E-01	1.613E+02	1.388E+02	4.007E+02	1.725E+03
37.25	7.982E+00	1.504E+03	8.789E+00	3.337E+00	1.008E-01	3.169E+00	-3.187E-01	2.701E+00	-6.657E-01	1.624E+02	1.422E+02	3.929E+02	1.744E+03
37.30	8.114E+00	1.503E+03	8.791E+00	3.372E+00	1.043E-01	3.175E+00	-3.418E-01	2.758E+00	-6.574E-01	1.627E+02	1.452E+02	3.860E+02	1.762E+03
37.35	8.189E+00	1.502E+03	8.793E+00	3.375E+00	1.106E-01	3.172E+00	-3.670E-01	2.816E+00	-6.449E-01	1.614E+02	1.481E+02	3.784E+02	1.775E+03
37.40	8.135E+00	1.502E+03	8.794E+00	3.346E+00	1.201E-01	3.166E+00	-3.947E-01	2.864E+00	-6.281E-01	1.583E+02	1.511E+02	3.704E+02	1.775E+03
37.45	7.951E+00	1.502E+03	8.797E+00	3.288E+00	1.322E-01	3.166E+00	-4.248E-01	2.897E+00	-6.070E-01	1.566E+02	1.535E+02	3.633E+02	1.765E+03
37.50	7.923E+00	1.502E+03	8.800E+00	3.205E+00	1.467E-01	3.181E+00	-4.566E-01	2.912E+00	-5.822E-01	1.533E+02	1.556E+02	3.561E+02	1.753E+03
37.55	8.069E+00	1.502E+03	8.802E+00	3.105E+00	1.621E-01	3.212E+00	-4.894E-01	2.910E+00	-5.551E-01	1.478E+02	1.576E+02	3.481E+02	1.740E+03
37.60	8.191E+00	1.502E+03	8.802E+00	2.993E+00	1.771E-01	3.256E+00	-5.223E-01	2.896E+00	-5.276E-01	1.434E+02	1.590E+02	3.409E+02	1.726E+03
37.65	8.159E+00	1.502E+03	8.803E+00	2.873E+00	1.908E-01	3.303E+00	-5.537E-01	2.872E+00	-5.011E-01	1.389E+02	1.607E+02	3.347E+02	1.713E+03
37.70	8.126E+00	1.501E+03	8.803E+00	2.750E+00	2.031E-01	3.344E+00	-5.815E-01	2.835E+00	-4.764E-01	1.337E+02	1.617E+02	3.268E+02	1.709E+03
37.75	8.233E+00	1.501E+03	8.803E+00	2.629E+00	2.136E-01	3.374E+00	-6.046E-01	2.783E+00	-4.532E-01	1.303E+02	1.614E+02	3.190E+02	1.712E+03
37.80	8.241E+00	1.500E+03	8.802E+00	2.515E+00	2.221E-01	3.391E+00	-6.230E-01	2.716E+00	-4.316E-01	1.286E+02	1.605E+02	3.128E+02	1.717E+03
37.85	8.030E+00	1.500E+03	8.800E+00	2.413E+00	2.277E-01	3.398E+00	-6.374E-01	2.637E+00	-4.123E-01	1.254E+02	1.594E+02	3.048E+02	1.718E+03
37.90	8.053E+00	1.500E+03	8.800E+00	2.330E+00	2.298E-01	3.400E+00	-6.489E-01	2.549E+00	-3.944E-01	1.247E+02	1.582E+02	2.966E+02	1.717E+03
37.95	8.140E+00	1.499E+03	8.802E+00	2.275E+00	2.286E-01	3.404E+00	-6.581E-01	2.457E+00	-3.759E-01	1.273E+02	1.563E+02	2.903E+02	1.725E+03
38.00	8.169E+00	1.499E+03	8.803E+00	2.257E+00	2.237E-01	3.413E+00	-6.662E-01	2.369E+00	-3.563E-01	1.254E+02	1.544E+02	2.831E+02	1.740E+03
38.05	8.143E+00	1.499E+03	8.801E+00	2.281E+00	2.141E-01	3.425E+00	-6.757E-01	2.298E+00	-3.367E-01	1.224E+02	1.516E+02	2.737E+02	1.740E+03
38.10	8.049E+00	1.499E+03	8.800E+00	2.338E+00	2.003E-01	3.441E+00	-6.874E-01	2.250E+00	-3.160E-01	1.228E+02	1.493E+02	2.671E+02	1.727E+03
38.15	7.907E+00	1.499E+03	8.803E+00	2.417E+00	1.850E-01	3.455E+00	-6.998E-01	2.224E+00	-2.924E-01	1.251E+02	1.452E+02	2.599E+02	1.721E+03
38.20	7.739E+00	1.499E+03	8.802E+00	2.506E+00	1.693E-01	3.462E+00	-7.126E-01	2.211E+00	-2.654E-01	1.238E+02	1.413E+02	2.520E+02	1.719E+03
38.25	7.685E+00	1.499E+03	8.799E+00	2.598E+00	1.519E-01	3.457E+00	-7.264E-01	2.200E+00	-2.357E-01	1.307E+02	1.365E+02	2.446E+02	1.707E+03
38.30	7.655E+00	1.498E+03	8.796E+00	2.688E+00	1.329E-01	3.438E+00	-7.406E-01	2.185E+00	-2.037E-01	1.393E+02	1.325E+02	2.385E+02	1.690E+03
38.35	7.792E+00	1.498E+03	8.795E+00	2.777E+00	1.130E-01	3.404E+00	-7.540E-01	2.162E+00	-1.704E-01	1.470E+02	1.276E+02	2.309E+02	1.680E+03
38.40	7.944E+00	1.496E+03	8.793E+00	2.862E+00	9.293E-02	3.358E+00	-7.655E-01	2.136E+00	-1.368E-01	1.526E+02	1.225E+02	2.232E+02	1.682E+03
38.45	8.084E+00	1.495E+03	8.790E+00	2.942E+00	7.294E-02	3.301E+00	-7.746E-01	2.111E+00	-1.044E-01	1.565E+02	1.168E+02	2.164E+02	1.689E+03
38.50	7.969E+00	1.494E+03	8.788E+00	3.010E+00	5.345E-02	3.236E+00	-7.810E-01	2.092E+00	-7.521E-02	1.568E+02	1.124E+02	2.105E+02	1.696E+03
38.55	7.824E+00	1.493E+03	8.785E+00	3.062E+00	3.522E-02	3.166E+00	-7.845E-01	2.079E+00	-5.042E-02	1.529E+02	1.056E+02	2.022E+02	1.701E+03
38.60	7.914E+00	1.491E+03	8.782E+00	3.092E+00	1.771E-02	3.097E+00	-7.847E-01	2.072E+00	-3.014E-02	1.546E+02	9.993E+01	1.969E+02	1.698E+03
38.65	8.003E+00	1.490E+03	8.781E+00	3.101E+00	1.622E-03	3.029E+00	-7.811E-01	2.069E+00	-1.381E-02	1.502E+02	9.545E+01	1.919E+02	1.699E+03
38.70	8.000E+00	1.489E+03	8.779E+00	3.093E+00	-1.384E-02	2.959E+00	-7.743E-01	2.066E+00	-1.279E-03	1.493E+02	8.831E+01	1.851E+02	1.697E+03
38.75	8.131E+00	1.487E+03	8.777E+00	3.072E+00	-2.929E-02	2.891E+00	-7.642E-01	2.062E+00	9.588E-03	1.472E+02	8.278E+01	1.804E+02	1.695E+03
38.80	8.196E+00	1.486E+03	8.775E+00	3.043E+00	-4.541E-02	2.827E+00	-7.514E-01	2.057E+00	1.995E-02	1.485E+02	7.582E+01	1.767E+02	1.692E+03
38.85	8.236E+00	1.485E+03	8.774E+00	3.013E+00	-6.285E-02	2.768E+00	-7.375E-01	2.057E+00	2.987E-02	1.487E+02	6.855E+01	1.728E+02	1.691E+03
38.90	8.386E+00	1.483E+03	8.771E+00	2.988E+00	-8.218E-02	2.717E+00	-7.235E-01	2.068E+00	3.960E-02	1.455E+02	6.065E+01	1.687E+02	1.692E+03
38.95	8.454E+00	1.482E+03	8.770E+00	2.971E+00	-1.041E-01	2.679E+00	-7.108E-01	2.094E+00	4.920E-02	1.462E+02	5.364E+01	1.659E+02	1.691E+03
39.00	8.486E+00	1.480E+03	8.772E+00	2.964E+00	-1.270E-01	2.654E+00	-6.996E-01	2.136E+00	5.943E-02	1.447E+02	4.627E+01	1.627E+02	1.701E+03
39.05	8.634E+00	1.479E+03	8.771E+00	2.966E+00	-1.502E-01	2.640E+00	-6.907E-01	2.194E+00	7.053E-02	1.434E+02	3.707E+01	1.589E+02	1.712E+03
39.10	8.624E+00	1.478E+03	8.768E+00	2.978E+00	-1.740E-01	2.633E+00	-6.842E-01	2.265E+00	8.219E-02	1.416E+02	3.066E+01	1.563E+02	1.712E+03
39.15	8.521E+00	1.477E+03	8.767E+00	3.001E+00	-1.981E-01	2.629E+00	-6.801E-01	2.349E+00	9.369E-02	1.409E+02	2.336E+01	1.539E+02	1.701E+03
39.20	8.463E+00	1.477E+03	8.767E+00	3.038E+00	-2.220E-01	2.623E+00	-6.768E-01	2.448E+00	1.045E-01	1.408E+02	1.537E+01	1.517E+02	1.690E+03
39.25	8.536E+00	1.475E+03	8.767E+00	3.087E+00	-2.453E-01	2.616E+00	-6.729E-01	2.561E+00	1.140E-01	1.411E+02	7.438E+00	1.501E+02	1.687E+03
39.30	8.627E+00	1.474E+03	8.767E+00	3.144E+00	-2.682E-01	2.612E+00	-6.684E-01	2.685E+00	1.209E-01	1.404E+02	4.054E-01	1.488E+02	1.689E+03
39.35	8.763E+00	1.473E+03	8.765E+00	3.198E+00	-2.905E-01	2.613E+00	-6.638E-01	2.811E+00	1.241E-01	1.421E+02	-7.783E+00	1.473E+02	1.691E+03
39.40	8.718E+00	1.472E+03	8.765E+00	3.243E+00	-3.118E-01	2.616E+00	-6.579E-01	2.930E+00	1.246E-01	1.447E+02	-1.541E+01	1.462E+02	1.693E+03
39.45	8.464E+00	1.471E+03	8.766E+00	3.278E+00	-3.319E-01	2.618E+00	-6.492E-01	3.035E+00	1.235E-01	1.468E+02	-2.175E+01	1.458E+02	1.700E+03
39.50	8.308E+00	1.471E+03	8.767E+00	3.304E+00	-3.513E-01	2.618E+00	-6.378E-01	3.126E+00	1.213E-01	1.494E+02	-2.940E+01	1.462E+02	1.710E+03
39.55	8.245E+00	1.470E+03	8.769E+00	3.327E+00	-3.709E-01	2.614E+00	-6.237E-01	3.202E+00	1.182E-01	1.500E+02	-3.683E+01	1.473E+02	1.722E+03
39.60	8.492E+00	1.470E+03	8.770E+00	3.348E+00	-3.915E-01	2.608E+00	-6.066E-01	3.261E+00	1.147E-01	1.489E+02	-4.347E+01	1.486E+02	1.730E+03
39.65	8.496E+00	1.471E+03	8.773E+00	3.369E+00	-4.135E-01	2.597E+00	-5.874E-01	3.303E+00	1.114E-01	1.498E+02	-5.145E+01	1.497E+02	1.733E+03
39.70	8.321E+00	1.471E+03	8.777E+00	3.390E+00	-4.368E-01	2.584E+00	-5.664E-01	3.323E+00	1.098E-01	1.497E+02	-5.925E+01	1.513E+02	1.736E+03
39.75	8.182E+00	1.472E+03	8.781E+00	3.413E+00	-4.619E-01	2.572E+00	-5.442E-01	3.318E+00	1.115E-01	1.508E+02	-6.731E+01	1.534E+02	1.740E+03
39.80	8.093E+00	1.473E+03	8.785E+00	3.442E+00	-4.889E-01	2.564E+00	-5.219E-01	3.290E+00	1.170E-01	1.523E+02	-7.532E+01	1.560E+02	1.743E+03
39.85	8.185E+00	1.475E+03	8.788E+00	3.477E+00	-5.181E-01	2.563E+00	-5.006E-01	3.240E+00	1.261E-01	1.540E+02	-8.376E+01	1.593E+02	1.740E+03
39.90	8.351E+00	1.476E+03	8.791E+00	3.519E+00	-5.488E-01	2.564E+00	-4.805E-01	3.175E+00	1.378E-01	1.565E+02	-9.228E+01	1.630E+02	1.733E+03
39.95	8.406E+00	1.478E+03	8.796E+00	3.567E+00	-5.792E-01	2.564E+00	-4.610E-01	3.099E+00	1.514E-01	1.582E+02	-1.003E+02	1.667E+02	1.731E+03
40.00	8.351E+00	1.479E+03	8.798E+00	3.617E+00	-6.085E-01	2.562E+00	-4.422E-01	3.015E+00	1.656E-01	1.595E+02	-1.084E+02	1.703E+02	1.731E+03
40.05	8.241E+00	1.481E+03	8.800E+00	3.670E+00	-6.363E-01	2.554E+00	-4.244E-01	2.927E+00	1.784E-01	1.604E+02	-1.160E+02	1.740E+02	1.727E+03
40.10	8.379E+00	1.483E+03	8.802E+00	3.720E+00	-6.617E-01	2.536E+00	-4.069E-01	2.837E+00	1.894E-01	1.626E+02	-1.234E+02	1.773E+02	1.720E+03
40.15	8.457E+00	1.484E+03	8.806E+00	3.763E+00	-6.830E-01	2.503E+00	-3.880E-01	2.752E+00	1.985E-01	1.641E+02	-1.305E+02	1.818E+02	1.722E+03
40.20	8.376E+00	1.486E+03	8.807E+00	3.790E+00	-6.994E-01	2.454E+00	-3.674E-01	2.675E+00	2.051E-01	1.642E+02	-1.363E+02	1.868E+02	1.727E+03
40.25	8.442E+00	1.487E+03	8.807E+00	3.801E+00	-7.117E-01	2.396E+00	-3.463E-01	2.611E+00	2.076E-01	1.639E+02	-1.413E+02	1.919E+02	1.724E+03
40.30	8.381E+00	1.489E+03	8.806E+00	3.796E+00	-7.210E-01	2.340E+00	-3.264E-01	2.563E+00	2.055E-01	1.664E+02	-1.464E+02	1.978E+02	1.711E+03
40.35	8.129E+00	1.490E+03	8.806E+00	3.779E+00	-7.274E-01	2.300E+00	-3.076E-01	2.528E+00	2.000E-01	1.658E+02	-1.511E+02	2.039E+02	1.699E+03
40.40	8.046E+00	1.491E+03	8.806E+00	3.749E+00	-7.313E-01	2.288E+00	-2.900E-01	2.502E+00	1.924E-01	1.629E+02	-1.550E+02	2.091E+02	1.693E+03
40.45	8.147E+00	1.491E+03	8.805E+00	3.706E+00	-7.337E-01	2.300E+00	-2.736E-01	2.484E+00	1.833E-01	1.605E+02	-1.594E+02	2.147E+02	1.690E+03
40.50	8.254E+00	1.491E+03	8.801E+00	3.645E+00	-7.358E-01	2.324E+00	-2.575E-01	2.476E+00	1.724E-01	1.599E+02	-1.638E+02	2.225E+02	1.686E+03
40.55	8.380E+00	1.491E+03	8.798E+00	3.565E+00	-7.374E-01	2.339E+00	-2.394E-01	2.479E+00	1.599E-01	1.582E+02	-1.668E+02	2.298E+02	1.678E+03
40.60	8.284E+00	1.491E+03	8.796E+00	3.469E+00	-7.381E-01	2.336E+00	-2.178E-01	2.492E+00	1.462E-01	1.560E+02	-1.700E+02	2.365E+02	1.675E+03
40.65	8.149E+00	1.490E+03	8.794E+00	3.365E+00	-7.381E-01	2.313E+00	-1.929E-01	2.512E+00	1.318E-01	1.536E+02	-1.736E+02	2.447E+02	1.680E+03
40.70	8.061E+00	1.489E+03	8.789E+00	3.264E+00	-7.389E-01	2.279E+00	-1.666E-01	2.536E+00	1.163E-01	1.512E+02	-1.776E+02	2.518E+02	1.679E+03
40.75	8.055E+00	1.488E+03	8.784E+00	3.170E+00	-7.408E-01	2.249E+00	-1.406E-01	2.564E+00	9.962E-02	1.435E+02	-1.804E+02	2.586E+02	1.673E+03
40.80	8.244E+00	1.487E+03	8.782E+00	3.079E+00	-7.428E-01	2.235E+00	-1.160E-01	2.594E+00	8.283E-02	1.373E+02	-1.836E+02	2.645E+02	1.670E+03
40.85	8.366E+00	1.486E+03	8.778E+00	2.986E+00	-7.437E-01	2.243E+00	-9.371E-02	2.628E+00	6.660E-02	1.326E+02	-1.865E+02	2.728E+02	1.670E+03
40.90	8.461E+00	1.484E+03	8.772E+00	2.888E+00	-7.432E-01	2.267E+00	-7.390E-02	2.662E+00	5.037E-02	1.293E+02	-1.884E+02	2.805E+02	1.666E+03
40.95	8.618E+00	1.482E+03	8.767E+00	2.789E+00	-7.412E-01	2.297E+00	-5.661E-02	2.693E+00	3.374E-02	1.282E+02	-1.895E+02	2.874E+02	1.655E+03
41.00	8.765E+00	1.480E+03	8.762E+00	2.695E+00	-7.374E-01	2.325E+00	-4.132E-02	2.716E+00	1.732E-02	1.302E+02	-1.906E+02	2.958E+02	1.647E+03
41.05	8.699E+00	1.477E+03	8.758E+00	2.616E+00	-7.321E-01	2.349E+00	-2.734E-02	2.731E+00	9.275E-04	1.313E+02	-1.917E+02	3.042E+02	1.646E+03
41.10	8.587E+00	1.474E+03	8.753E+00	2.559E+00	-7.264E-01	2.368E+00	-1.454E-02	2.737E+00	-1.657E-02	1.320E+02	-1.927E+02	3.108E+02	1.647E+03
41.15	8.371E+00	1.472E+03	8.749E+00	2.530E+00	-7.210E-01	2.387E+00	-2.511E-03	2.743E+00	-3.562E-02	1.307E+02	-1.926E+02	3.184E+02	1.654E+03
41.20	8.009E+00	1.469E+03	8.745E+00	2.529E+00	-7.166E-01	2.414E+00	8.836E-03	2.753E+00	-5.710E-02	1.303E+02	-1.921E+02	3.264E+02	1.662E+03
41.25	7.812E+00	1.466E+03	8.742E+00	2.552E+00	-7.128E-01	2.453E+00	1.965E-02	2.775E+00	-8.153E-02	1.274E+02	-1.902E+02	3.334E+02	1.671E+03
41.30	7.808E+00	1.463E+03	8.741E+00	2.591E+00	-7.084E-01	2.509E+00	3.019E-02	2.811E+00	-1.081E-01	1.254E+02	-1.886E+02	3.400E+02	1.684E+03
41.35	7.775E+00	1.461E+03	8.739E+00	2.632E+00	-7.029E-01	2.582E+00	3.974E-02	2.860E+00	-1.364E-01	1.257E+02	-1.866E+02	3.481E+02	1.693E+03
41.40	7.787E+00	1.459E+03	8.737E+00	2.667E+00	-6.960E-01	2.667E+00	4.809E-02	2.920E+00	-1.663E-01	1.270E+02	-1.841E+02	3.557E+02	1.692E+03
41.45	7.908E+00	1.458E+03	8.737E+00	2.692E+00	-6.877E-01	2.758E+00	5.616E-02	2.990E+00	-1.973E-01	1.329E+02	-1.824E+02	3.630E+02	1.685E+03
41.50	7.702E+00	1.456E+03	8.737E+00	2.708E+00	-6.784E-01	2.847E+00	6.522E-02	3.073E+00	-2.286E-01	1.409E+02	-1.804E+02	3.715E+02	1.682E+03
41.55	7.674E+00	1.454E+03	8.737E+00	2.720E+00	-6.687E-01	2.926E+00	7.586E-02	3.170E+00	-2.607E-01	1.459E+02	-1.772E+02	3.795E+02	1.682E+03
41.60	7.868E+00	1.453E+03	8.738E+00	2.731E+00	-6.590E-01	2.990E+00	8.777E-02	3.275E+00	-2.931E-01	1.483E+02	-1.740E+02	3.858E+02	1.682E+03
41.65	8.137E+00	1.451E+03	8.738E+00	2.739E+00	-6.494E-01	3.039E+00	1.001E-01	3.378E+00	-3.242E-01	1.484E+02	-1.701E+02	3.931E+02	1.686E+03
41.70	8.119E+00	1.450E+03	8.739E+00	2.743E+00	-6.401E-01	3.074E+00	1.113E-01	3.468E+00	-3.530E-01	1.455E+02	-1.661E+02	4.004E+02	1.690E+03
41.75	7.865E+00	1.449E+03	8.740E+00	2.745E+00	-6.309E-01	3.103E+00	1.203E-01	3.537E+00	-3.786E-01	1.399E+02	-1.626E+02	4.068E+02	1.693E+03
41.80	7.673E+00	1.449E+03	8.742E+00	2.743E+00	-6.221E-01	3.132E+00	1.265E-01	3.587E+00	-4.009E-01	1.332E+02	-1.585E+02	4.139E+02	1.697E+03
41.85	7.703E+00	1.448E+03	8.744E+00	2.735E+00	-6.129E-01	3.163E+00	1.302E-01	3.619E+00	-4.207E-01	1.289E+02	-1.539E+02	4.211E+02	1.702E+03
41.90	7.741E+00	1.448E+03	8.746E+00	2.715E+00	-6.019E-01	3.191E+00	1.326E-01	3.637E+00	-4.388E-01	1.270E+02	-1.495E+02	4.272E+02	1.707E+03
41.95	7.602E+00	1.448E+03	8.749E+00	2.683E+00	-5.889E-01	3.210E+00	1.342E-01	3.641E+00	-4.564E-01	1.268E+02	-1.440E+02	4.332E+02	1.710E+03
42.00	7.401E+00	1.449E+03	8.753E+00	2.647E+00	-5.740E-01	3.215E+00	1.359E-01	3.633E+00	-4.738E-01	1.314E+02	-1.381E+02	4.396E+02	1.711E+03
42.05	7.316E+00	1.450E+03	8.758E+00	2.612E+00	-5.568E-01	3.200E+00	1.392E-01	3.612E+00	-4.912E-01	1.368E+02	-1.324E+02	4.461E+02	1.719E+03
42.10	7.268E+00	1.451E+03	8.763E+00	2.586E+00	-5.375E-01	3.163E+00	1.452E-01	3.583E+00	-5.091E-01	1.417E+02	-1.272E+02	4.518E+02	1.732E+03
42.15	7.350E+00	1.452E+03	8.768E+00	2.576E+00	-5.176E-01	3.104E+00	1.544E-01	3.552E+00	-5.288E-01	1.465E+02	-1.216E+02	4.577E+02	1.742E+03
42.20	7.351E+00	1.454E+03	8.770E+00	2.585E+00	-4.981E-01	3.027E+00	1.664E-01	3.526E+00	-5.515E-01	1.483E+02	-1.145E+02	4.632E+02	1.739E+03
42.25	7.443E+00	1.456E+03	8.774E+00	2.608E+00	-4.787E-01	2.938E+00	1.803E-01	3.509E+00	-5.772E-01	1.462E+02	-1.073E+02	4.668E+02	1.724E+03
42.30	7.598E+00	1.458E+03	8.777E+00	2.636E+00	-4.590E-01	2.847E+00	1.950E-01	3.499E+00	-6.039E-01	1.425E+02	-9.997E+01	4.698E+02	1.707E+03
42.35	7.547E+00	1.460E+03	8.780E+00	2.661E+00	-4.390E-01	2.760E+00	2.090E-01	3.497E+00	-6.298E-01	1.394E+02	-9.109E+01	4.735E+02	1.694E+03
42.40	7.539E+00	1.461E+03	8.780E+00	2.674E+00	-4.184E-01	2.677E+00	2.202E-01	3.498E+00	-6.532E-01	1.369E+02	-8.428E+01	4.764E+02	1.680E+03
42.45	7.650E+00	1.463E+03	8.779E+00	2.668E+00	-3.979E-01	2.599E+00	2.268E-01	3.498E+00	-6.732E-01	1.376E+02	-7.764E+01	4.797E+02	1.664E+03
42.50	7.757E+00	1.463E+03	8.779E+00	2.643E+00	-3.777E-01	2.530E+00	2.287E-01	3.492E+00	-6.887E-01	1.402E+02	-6.933E+01	4.839E+02	1.658E+03
42.55	7.922E+00	1.464E+03	8.778E+00	2.604E+00	-3.571E-01	2.472E+00	2.265E-01	3.480E+00	-6.994E-01	1.439E+02	-6.191E+01	4.872E+02	1.662E+03
42.60	7.943E+00	1.464E+03	8.777E+00	2.561E+00	-3.365E-01	2.426E+00	2.207E-01	3.463E+00	-7.063E-01	1.494E+02	-5.595E+01	4.889E+02	1.671E+03
42.65	7.904E+00	1.464E+03	8.775E+00	2.517E+00	-3.165E-01	2.392E+00	2.119E-01	3.444E+00	-7.103E-01	1.527E+02	-4.872E+01	4.901E+02	1.680E+03
42.70	7.881E+00	1.465E+03	8.772E+00	2.477E+00	-2.968E-01	2.371E+00	2.007E-01	3.424E+00	-7.121E-01	1.512E+02	-4.056E+01	4.907E+02	1.682E+03
42.75	7.840E+00	1.465E+03	8.768E+00	2.439E+00	-2.774E-01	2.364E+00	1.872E-01	3.399E+00	-7.127E-01	1.463E+02	-3.313E+01	4.910E+02	1.671E+03
42.80	7.733E+00	1.464E+03	8.765E+00	2.402E+00	-2.577E-01	2.374E+00	1.719E-01	3.366E+00	-7.130E-01	1.405E+02	-2.523E+01	4.915E+02	1.653E+03
42.85	7.604E+00	1.464E+03	8.763E+00	2.357E+00	-2.362E-01	2.401E+00	1.563E-01	3.324E+00	-7.128E-01	1.348E+02	-1.713E+01	4.918E+02	1.641E+03
42.90	7.597E+00	1.463E+03	8.758E+00	2.301E+00	-2.119E-01	2.439E+00	1.412E-01	3.273E+00	-7.132E-01	1.279E+02	-8.916E+00	4.913E+02	1.634E+03
42.95	7.512E+00	1.461E+03	8.751E+00	2.235E+00	-1.855E-01	2.478E+00	1.262E-01	3.219E+00	-7.159E-01	1.233E+02	-1.199E+00	4.899E+02	1.621E+03
43.00	7.368E+00	1.459E+03	8.744E+00	2.163E+00	-1.585E-01	2.513E+00	1.114E-01	3.164E+00	-7.218E-01	1.219E+02	7.309E+00	4.882E+02	1.606E+03
43.05	7.342E+00	1.457E+03	8.740E+00	2.094E+00	-1.308E-01	2.540E+00	9.806E-02	3.107E+00	-7.293E-01	1.221E+02	1.601E+01	4.862E+02	1.603E+03
43.10	7.395E+00	1.454E+03	8.735E+00	2.038E+00	-1.033E-01	2.557E+00	8.600E-02	3.049E+00	-7.369E-01	1.222E+02	2.318E+01	4.850E+02	1.614E+03
43.15	7.365E+00	1.451E+03	8.730E+00	2.004E+00	-7.748E-02	2.571E+00	7.502E-02	2.986E+00	-7.440E-01	1.231E+02	3.028E+01	4.835E+02	1.634E+03
43.20	7.114E+00	1.448E+03	8.722E+00	1.995E+00	-5.448E-02	2.584E+00	6.358E-02	2.923E+00	-7.510E-01	1.212E+02	3.922E+01	4.810E+02	1.642E+03
43.25	6.998E+00	1.445E+03	8.714E+00	2.005E+00	-3.429E-02	2.598E+00	5.007E-02	2.865E+00	-7.583E-01	1.202E+02	4.694E+01	4.784E+02	1.628E+03
43.30	6.874E+00	1.442E+03	8.711E+00	2.032E+00	-1.591E-02	2.612E+00	3.551E-02	2.818E+00	-7.642E-01	1.215E+02	5.451E+01	4.749E+02	1.616E+03
43.35	6.864E+00	1.439E+03	8.707E+00	2.076E+00	7.773E-04	2.624E+00	2.021E-02	2.787E+00	-7.677E-01	1.223E+02	6.299E+01	4.697E+02	1.613E+03
43.40	7.119E+00	1.436E+03	8.702E+00	2.139E+00	1.505E-02	2.633E+00	2.716E-03	2.777E+00	-7.681E-01	1.256E+02	6.909E+01	4.662E+02	1.614E+03
43.45	7.316E+00	1.432E+03	8.698E+00	2.222E+00	2.566E-02	2.640E+00	-1.733E-02	2.781E+00	-7.650E-01	1.301E+02	7.464E+01	4.635E+02	1.617E+03
43.50	7.369E+00	1.429E+03	8.693E+00	2.326E+00	3.169E-02	2.648E+00	-3.983E-02	2.786E+00	-7.583E-01	1.327E+02	8.245E+01	4.588E+02	1.622E+03
43.55	7.268E+00	1.425E+03	8.689E+00	2.450E+00	3.398E-02	2.663E+00	-6.524E-02	2.790E+00	-7.477E-01	1.370E+02	8.888E+01	4.541E+02	1.624E+03
43.60	7.339E+00	1.422E+03	8.688E+00	2.589E+00	3.390E-02	2.689E+00	-9.293E-02	2.791E+00	-7.335E-01	1.435E+02	9.287E+01	4.502E+02	1.629E+03
43.65	7.342E+00	1.419E+03	8.687E+00	2.738E+00	3.195E-02	2.734E+00	-1.218E-01	2.791E+00	-7.175E-01	1.484E+02	9.807E+01	4.433E+02	1.643E+03
43.70	7.252E+00	1.417E+03	8.686E+00	2.888E+00	2.892E-02	2.799E+00	-1.522E-01	2.793E+00	-7.007E-01	1.533E+02	1.029E+02	4.361E+02	1.655E+03
43.75	7.293E+00	1.414E+03	8.686E+00	3.030E+00	2.606E-02	2.883E+00	-1.838E-01	2.797E+00	-6.839E-01	1.581E+02	1.073E+02	4.314E+02	1.660E+03
43.80	7.085E+00	1.413E+03	8.688E+00	3.157E+00	2.489E-02	2.981E+00	-2.152E-01	2.799E+00	-6.680E-01	1.623E+02	1.124E+02	4.255E+02	1.666E+03
43.85	7.093E+00	1.411E+03	8.689E+00	3.263E+00	2.697E-02	3.081E+00	-2.454E-01	2.799E+00	-6.539E-01	1.649E+02	1.180E+02	4.179E+02	1.671E+03
43.90	7.217E+00	1.410E+03	8.690E+00	3.344E+00	3.287E-02	3.172E+00	-2.745E-01	2.799E+00	-6.422E-01	1.682E+02	1.226E+02	4.127E+02	1.666E+03
43.95	7.332E+00	1.409E+03	8.693E+00	3.402E+00	4.249E-02	3.246E+00	-3.016E-01	2.797E+00	-6.339E-01	1.707E+02	1.277E+02	4.064E+02	1.660E+03
44.00	7.472E+00	1.408E+03	8.695E+00	3.439E+00	5.521E-02	3.300E+00	-3.261E-01	2.797E+00	-6.290E-01	1.699E+02	1.328E+02	3.979E+02	1.658E+03
44.05	7.542E+00	1.408E+03	8.698E+00	3.460E+00	6.963E-02	3.339E+00	-3.488E-01	2.799E+00	-6.264E-01	1.683E+02	1.374E+02	3.916E+02	1.660E+03
44.10	7.500E+00	1.407E+03	8.703E+00	3.466E+00	8.466E-02	3.372E+00	-3.702E-01	2.805E+00	-6.252E-01	1.648E+02	1.421E+02	3.851E+02	1.670E+03
44.15	7.465E+00	1.408E+03	8.707E+00	3.454E+00	9.993E-02	3.404E+00	-3.907E-01	2.813E+00	-6.242E-01	1.592E+02	1.464E+02	3.771E+02	1.686E+03
44.20	7.438E+00	1.408E+03	8.710E+00	3.420E+00	1.152E-01	3.436E+00	-4.116E-01	2.822E+00	-6.218E-01	1.529E+02	1.510E+02	3.707E+02	1.695E+03
44.25	7.519E+00	1.409E+03	8.714E+00	3.362E+00	1.299E-01	3.467E+00	-4.334E-01	2.831E+00	-6.172E-01	1.484E+02	1.554E+02	3.647E+02	1.695E+03
44.30	7.599E+00	1.411E+03	8.720E+00	3.284E+00	1.443E-01	3.490E+00	-4.556E-01	2.839E+00	-6.095E-01	1.456E+02	1.589E+02	3.573E+02	1.693E+03
44.35	7.494E+00	1.412E+03	8.726E+00	3.195E+00	1.580E-01	3.499E+00	-4.775E-01	2.852E+00	-5.976E-01	1.466E+02	1.604E+02	3.507E+02	1.695E+03
44.40	7.269E+00	1.414E+03	8.732E+00	3.105E+00	1.701E-01	3.489E+00	-4.987E-01	2.870E+00	-5.814E-01	1.467E+02	1.612E+02	3.453E+02	1.698E+03
44.45	7.049E+00	1.417E+03	8.736E+00	3.023E+00	1.798E-01	3.460E+00	-5.191E-01	2.888E+00	-5.616E-01	1.427E+02	1.625E+02	3.379E+02	1.697E+03
44.50	6.941E+00	1.419E+03	8.739E+00	2.948E+00	1.871E-01	3.417E+00	-5.392E-01	2.898E+00	-5.379E-01	1.373E+02	1.630E+02	3.296E+02	1.688E+03
44.55	6.845E+00	1.421E+03	8.741E+00	2.879E+00	1.920E-01	3.374E+00	-5.600E-01	2.893E+00	-5.101E-01	1.336E+02	1.631E+02	3.236E+02	1.671E+03
44.60	6.686E+00	1.423E+03	8.745E+00	2.815E+00	1.955E-01	3.342E+00	-5.815E-01	2.869E+00	-4.794E-01	1.304E+02	1.627E+02	3.162E+02	1.657E+03
44.65	6.693E+00	1.425E+03	8.747E+00	2.753E+00	1.984E-01	3.326E+00	-6.031E-01	2.827E+00	-4.468E-01	1.239E+02	1.615E+02	3.074E+02	1.653E+03
44.70	6.803E+00	1.426E+03	8.745E+00	2.690E+00	1.997E-01	3.326E+00	-6.248E-01	2.769E+00	-4.145E-01	1.229E+02	1.596E+02	3.004E+02	1.645E+03
44.75	6.759E+00	1.428E+03	8.744E+00	2.629E+00	1.988E-01	3.336E+00	-6.458E-01	2.701E+00	-3.848E-01	1.225E+02	1.589E+02	2.945E+02	1.630E+03
44.80	6.648E+00	1.428E+03	8.744E+00	2.575E+00	1.970E-01	3.347E+00	-6.639E-01	2.625E+00	-3.580E-01	1.228E+02	1.572E+02	2.854E+02	1.626E+03
44.85	6.586E+00	1.429E+03	8.743E+00	2.532E+00	1.951E-01	3.349E+00	-6.777E-01	2.541E+00	-3.325E-01	1.215E+02	1.554E+02	2.780E+02	1.632E+03
44.90	6.558E+00	1.430E+03	8.740E+00	2.504E+00	1.918E-01	3.337E+00	-6.881E-01	2.446E+00	-3.087E-01	1.220E+02	1.534E+02	2.715E+02	1.636E+03
44.95	6.502E+00	1.430E+03	8.737E+00	2.494E+00	1.871E-01	3.311E+00	-6.962E-01	2.338E+00	-2.866E-01	1.209E+02	1.506E+02	2.627E+02	1.633E+03
45.00	6.514E+00	1.430E+03	8.735E+00	2.498E+00	1.811E-01	3.275E+00	-7.026E-01	2.222E+00	-2.649E-01	1.202E+02	1.474E+02	2.545E+02	1.629E+03
45.05	6.551E+00	1.430E+03	8.733E+00	2.510E+00	1.743E-01	3.235E+00	-7.077E-01	2.107E+00	-2.427E-01	1.188E+02	1.453E+02	2.485E+02	1.627E+03
45.10	6.480E+00	1.429E+03	8.730E+00	2.529E+00	1.669E-01	3.194E+00	-7.118E-01	1.999E+00	-2.198E-01	1.185E+02	1.410E+02	2.404E+02	1.627E+03
45.15	6.577E+00	1.429E+03	8.725E+00	2.548E+00	1.584E-01	3.159E+00	-7.164E-01	1.905E+00	-1.963E-01	1.170E+02	1.371E+02	2.328E+02	1.622E+03
45.20	6.569E+00	1.428E+03	8.719E+00	2.562E+00	1.487E-01	3.133E+00	-7.224E-01	1.829E+00	-1.722E-01	1.151E+02	1.337E+02	2.260E+02	1.606E+03
45.25	6.386E+00	1.426E+03	8.714E+00	2.564E+00	1.382E-01	3.114E+00	-7.301E-01	1.769E+00	-1.476E-01	1.147E+02	1.295E+02	2.189E+02	1.587E+03
45.30	6.224E+00	1.424E+03	8.709E+00	2.552E+00	1.277E-01	3.100E+00	-7.385E-01	1.725E+00	-1.215E-01	1.162E+02	1.240E+02	2.122E+02	1.577E+03
45.35	6.099E+00	1.422E+03	8.704E+00	2.527E+00	1.168E-01	3.084E+00	-7.467E-01	1.696E+00	-9.427E-02	1.186E+02	1.187E+02	2.068E+02	1.577E+03
45.40	6.059E+00	1.419E+03	8.697E+00	2.497E+00	1.045E-01	3.060E+00	-7.540E-01	1.683E+00	-6.723E-02	1.220E+02	1.119E+02	2.006E+02	1.581E+03
45.45	6.160E+00	1.416E+03	8.689E+00	2.470E+00	8.951E-02	3.025E+00	-7.597E-01	1.689E+00	-4.192E-02	1.224E+02	1.064E+02	1.952E+02	1.581E+03
45.50	6.204E+00	1.413E+03	8.683E+00	2.452E+00	7.197E-02	2.978E+00	-7.631E-01	1.719E+00	-1.956E-02	1.207E+02	1.009E+02	1.893E+02	1.577E+03
45.55	6.040E+00	1.410E+03	8.678E+00	2.443E+00	5.315E-02	2.923E+00	-7.634E-01	1.777E+00	-2.658E-04	1.176E+02	9.436E+01	1.829E+02	1.581E+03
45.60	5.991E+00	1.407E+03	8.673E+00	2.443E+00	3.363E-02	2.866E+00	-7.604E-01	1.865E+00	1.568E-02	1.148E+02	8.771E+01	1.776E+02	1.590E+03
45.65	6.082E+00	1.403E+03	8.668E+00	2.447E+00	1.313E-02	2.814E+00	-7.557E-01	1.983E+00	2.682E-02	1.138E+02	8.105E+01	1.731E+02	1.594E+03
45.70	5.972E+00	1.400E+03	8.663E+00	2.456E+00	-8.002E-03	2.774E+00	-7.502E-01	2.127E+00	3.260E-02	1.132E+02	7.324E+01	1.681E+02	1.594E+03
45.75	6.082E+00	1.397E+03	8.660E+00	2.467E+00	-2.924E-02	2.751E+00	-7.437E-01	2.285E+00	3.414E-02	1.153E+02	6.626E+01	1.644E+02	1.596E+03
45.80	6.323E+00	1.394E+03	8.659E+00	2.483E+00	-4.953E-02	2.742E+00	-7.354E-01	2.449E+00	3.289E-02	1.169E+02	6.031E+01	1.614E+02	1.605E+03
45.85	6.328E+00	1.391E+03	8.657E+00	2.504E+00	-6.850E-02	2.741E+00	-7.255E-01	2.610E+00	2.935E-02	1.191E+02	5.245E+01	1.572E+02	1.615E+03
45.90	6.520E+00	1.388E+03	8.654E+00	2.533E+00	-8.695E-02	2.741E+00	-7.148E-01	2.762E+00	2.411E-02	1.223E+02	4.559E+01	1.534E+02	1.617E+03
45.95	6.621E+00	1.386E+03	8.654E+00	2.572E+00	-1.049E-01	2.739E+00	-7.032E-01	2.903E+00	1.845E-02	1.241E+02	3.982E+01	1.504E+02	1.616E+03
46.00	6.756E+00	1.384E+03	8.655E+00	2.623E+00	-1.224E-01	2.731E+00	-6.914E-01	3.035E+00	1.344E-02	1.247E+02	3.243E+01	1.475E+02	1.620E+03
46.05	6.896E+00	1.382E+03	8.654E+00	2.686E+00	-1.406E-01	2.718E+00	-6.804E-01	3.159E+00	9.218E-03	1.226E+02	2.613E+01	1.454E+02	1.621E+03
46.10	6.831E+00	1.380E+03	8.654E+00	2.755E+00	-1.603E-01	2.704E+00	-6.713E-01	3.273E+00	6.084E-03	1.219E+02	1.954E+01	1.438E+02	1.618E+03
46.15	6.579E+00	1.378E+03	8.656E+00	2.826E+00	-1.816E-01	2.697E+00	-6.649E-01	3.373E+00	5.286E-03	1.209E+02	1.346E+01	1.424E+02	1.617E+03
46.20	6.689E+00	1.377E+03	8.660E+00	2.891E+00	-2.036E-01	2.704E+00	-6.607E-01	3.450E+00	8.803E-03	1.225E+02	5.476E+00	1.411E+02	1.629E+03
46.25	6.854E+00	1.376E+03	8.663E+00	2.946E+00	-2.263E-01	2.729E+00	-6.580E-01	3.498E+00	1.786E-02	1.229E+02	-1.790E+00	1.405E+02	1.649E+03
46.30	6.669E+00	1.376E+03	8.667E+00	2.987E+00	-2.506E-01	2.771E+00	-6.570E-01	3.514E+00	3.179E-02	1.274E+02	-9.384E+00	1.404E+02	1.665E+03
46.35	6.616E+00	1.376E+03	8.672E+00	3.017E+00	-2.768E-01	2.826E+00	-6.567E-01	3.502E+00	4.979E-02	1.354E+02	-1.887E+01	1.409E+02	1.674E+03
46.40	6.684E+00	1.377E+03	8.677E+00	3.045E+00	-3.050E-01	2.888E+00	-6.552E-01	3.471E+00	7.038E-02	1.410E+02	-2.740E+01	1.422E+02	1.677E+03
46.45	6.733E+00	1.379E+03	8.683E+00	3.076E+00	-3.350E-01	2.947E+00	-6.510E-01	3.427E+00	9.160E-02	1.451E+02	-3.551E+01	1.438E+02	1.675E+03
46.50	6.801E+00	1.380E+03	8.689E+00	3.114E+00	-3.656E-01	2.991E+00	-6.426E-01	3.375E+00	1.121E-01	1.462E+02	-4.516E+01	1.456E+02	1.673E+03
46.55	6.728E+00	1.382E+03	8.694E+00	3.157E+00	-3.960E-01	3.014E+00	-6.290E-01	3.317E+00	1.304E-01	1.442E+02	-5.423E+01	1.471E+02	1.668E+03
46.60	6.704E+00	1.384E+03	8.698E+00	3.201E+00	-4.259E-01	3.011E+00	-6.101E-01	3.256E+00	1.455E-01	1.390E+02	-6.170E+01	1.479E+02	1.657E+03
46.65	6.904E+00	1.386E+03	8.702E+00	3.241E+00	-4.547E-01	2.980E+00	-5.871E-01	3.194E+00	1.569E-01	1.351E+02	-7.043E+01	1.494E+02	1.645E+03
46.70	7.106E+00	1.388E+03	8.706E+00	3.272E+00	-4.821E-01	2.930E+00	-5.613E-01	3.129E+00	1.652E-01	1.329E+02	-7.926E+01	1.518E+02	1.636E+03
46.75	7.143E+00	1.390E+03	8.710E+00	3.291E+00	-5.077E-01	2.874E+00	-5.340E-01	3.060E+00	1.711E-01	1.332E+02	-8.705E+01	1.545E+02	1.635E+03
46.80	7.017E+00	1.392E+03	8.714E+00	3.296E+00	-5.307E-01	2.822E+00	-5.067E-01	2.987E+00	1.753E-01	1.363E+02	-9.450E+01	1.579E+02	1.643E+03
46.85	7.026E+00	1.394E+03	8.716E+00	3.289E+00	-5.515E-01	2.776E+00	-4.804E-01	2.915E+00	1.777E-01	1.434E+02	-1.025E+02	1.623E+02	1.651E+03
46.90	7.211E+00	1.396E+03	8.719E+00	3.279E+00	-5.708E-01	2.732E+00	-4.552E-01	2.847E+00	1.782E-01	1.541E+02	-1.100E+02	1.663E+02	1.654E+03
46.95	7.450E+00	1.398E+03	8.723E+00	3.275E+00	-5.885E-01	2.682E+00	-4.299E-01	2.789E+00	1.781E-01	1.626E+02	-1.174E+02	1.707E+02	1.661E+03
47.00	7.578E+00	1.401E+03	8.725E+00	3.285E+00	-6.055E-01	2.622E+00	-4.044E-01	2.742E+00	1.773E-01	1.674E+02	-1.247E+02	1.759E+02	1.664E+03
47.05	7.621E+00	1.403E+03	8.726E+00	3.313E+00	-6.230E-01	2.544E+00	-3.790E-01	2.710E+00	1.752E-01	1.673E+02	-1.303E+02	1.806E+02	1.656E+03
47.10	7.591E+00	1.405E+03	8.729E+00	3.355E+00	-6.409E-01	2.447E+00	-3.530E-01	2.690E+00	1.725E-01	1.654E+02	-1.358E+02	1.848E+02	1.646E+03
47.15	7.560E+00	1.407E+03	8.731E+00	3.402E+00	-6.583E-01	2.340E+00	-3.264E-01	2.680E+00	1.706E-01	1.601E+02	-1.416E+02	1.903E+02	1.643E+03
47.20	7.425E+00	1.409E+03	8.730E+00	3.446E+00	-6.756E-01	2.235E+00	-3.003E-01	2.677E+00	1.691E-01	1.533E+02	-1.470E+02	1.956E+02	1.634E+03
47.25	7.409E+00	1.411E+03	8.728E+00	3.475E+00	-6.933E-01	2.142E+00	-2.759E-01	2.680E+00	1.671E-01	1.476E+02	-1.516E+02	2.000E+02	1.615E+03
47.30	7.417E+00	1.412E+03	8.726E+00	3.484E+00	-7.108E-01	2.070E+00	-2.536E-01	2.689E+00	1.646E-01	1.457E+02	-1.568E+02	2.061E+02	1.598E+03
47.35	7.364E+00	1.412E+03	8.726E+00	3.471E+00	-7.271E-01	2.023E+00	-2.323E-01	2.704E+00	1.618E-01	1.490E+02	-1.625E+02	2.133E+02	1.595E+03
47.40	7.153E+00	1.413E+03	8.724E+00	3.439E+00	-7.420E-01	1.993E+00	-2.107E-01	2.719E+00	1.584E-01	1.531E+02	-1.678E+02	2.202E+02	1.606E+03
47.45	6.988E+00	1.413E+03	8.721E+00	3.394E+00	-7.556E-01	1.970E+00	-1.887E-01	2.728E+00	1.536E-01	1.582E+02	-1.726E+02	2.277E+02	1.616E+03
47.50	6.961E+00	1.413E+03	8.717E+00	3.341E+00	-7.672E-01	1.942E+00	-1.658E-01	2.721E+00	1.476E-01	1.639E+02	-1.776E+02	2.353E+02	1.619E+03
47.55	6.965E+00	1.413E+03	8.714E+00	3.284E+00	-7.755E-01	1.908E+00	-1.415E-01	2.690E+00	1.410E-01	1.654E+02	-1.820E+02	2.422E+02	1.615E+03
47.60	7.023E+00	1.412E+03	8.710E+00	3.228E+00	-7.800E-01	1.869E+00	-1.158E-01	2.638E+00	1.339E-01	1.615E+02	-1.856E+02	2.487E+02	1.606E+03
47.65	7.121E+00	1.412E+03	8.705E+00	3.173E+00	-7.811E-01	1.832E+00	-9.013E-02	2.570E+00	1.255E-01	1.572E+02	-1.889E+02	2.551E+02	1.592E+03
47.70	7.076E+00	1.410E+03	8.699E+00	3.118E+00	-7.789E-01	1.808E+00	-6.588E-02	2.497E+00	1.148E-01	1.490E+02	-1.911E+02	2.623E+02	1.573E+03
47.75	7.140E+00	1.409E+03	8.691E+00	3.057E+00	-7.737E-01	1.800E+00	-4.428E-02	2.427E+00	1.006E-01	1.380E+02	-1.911E+02	2.688E+02	1.550E+03
47.80	7.032E+00	1.406E+03	8.684E+00	2.982E+00	-7.653E-01	1.812E+00	-2.603E-02	2.370E+00	8.317E-02	1.318E+02	-1.910E+02	2.753E+02	1.533E+03
47.85	6.991E+00	1.403E+03	8.677E+00	2.892E+00	-7.539E-01	1.841E+00	-1.087E-02	2.327E+00	6.385E-02	1.286E+02	-1.906E+02	2.843E+02	1.531E+03
47.90	7.022E+00	1.399E+03	8.670E+00	2.794E+00	-7.407E-01	1.884E+00	1.859E-03	2.299E+00	4.315E-02	1.293E+02	-1.909E+02	2.916E+02	1.540E+03
47.95	7.036E+00	1.395E+03	8.664E+00	2.701E+00	-7.277E-01	1.933E+00	1.289E-02	2.286E+00	2.208E-02	1.332E+02	-1.913E+02	2.996E+02	1.558E+03
48.00	7.030E+00	1.392E+03	8.657E+00	2.626E+00	-7.168E-01	1.987E+00	2.300E-02	2.287E+00	1.210E-03	1.374E+02	-1.917E+02	3.086E+02	1.577E+03
48.05	7.006E+00	1.388E+03	8.651E+00	2.581E+00	-7.094E-01	2.045E+00	3.265E-02	2.303E+00	-1.962E-02	1.362E+02	-1.906E+02	3.165E+02	1.588E+03
48.10	6.940E+00	1.385E+03	8.646E+00	2.575E+00	-7.066E-01	2.108E+00	4.162E-02	2.330E+00	-4.017E-02	1.356E+02	-1.901E+02	3.230E+02	1.589E+03
48.15	6.919E+00	1.382E+03	8.642E+00	2.604E+00	-7.079E-01	2.180E+00	4.998E-02	2.367E+00	-5.935E-02	1.316E+02	-1.886E+02	3.318E+02	1.587E+03
48.20	6.944E+00	1.379E+03	8.638E+00	2.656E+00	-7.110E-01	2.264E+00	5.772E-02	2.411E+00	-7.731E-02	1.245E+02	-1.871E+02	3.382E+02	1.580E+03
48.25	7.082E+00	1.376E+03	8.636E+00	2.711E+00	-7.141E-01	2.360E+00	6.470E-02	2.463E+00	-9.415E-02	1.232E+02	-1.871E+02	3.442E+02	1.576E+03
48.30	7.260E+00	1.372E+03	8.633E+00	2.755E+00	-7.156E-01	2.463E+00	7.109E-02	2.525E+00	-1.104E-01	1.271E+02	-1.863E+02	3.534E+02	1.575E+03
48.35	7.297E+00	1.369E+03	8.629E+00	2.785E+00	-7.150E-01	2.572E+00	7.670E-02	2.594E+00	-1.281E-01	1.316E+02	-1.848E+02	3.607E+02	1.571E+03
48.40	7.324E+00	1.366E+03	8.627E+00	2.802E+00	-7.122E-01	2.680E+00	8.154E-02	2.667E+00	-1.482E-01	1.404E+02	-1.838E+02	3.671E+02	1.567E+03
48.45	7.250E+00	1.363E+03	8.625E+00	2.814E+00	-7.072E-01	2.784E+00	8.598E-02	2.740E+00	-1.707E-01	1.468E+02	-1.807E+02	3.754E+02	1.571E+03
48.50	7.230E+00	1.360E+03	8.623E+00	2.830E+00	-7.004E-01	2.879E+00	9.000E-02	2.808E+00	-1.963E-01	1.520E+02	-1.779E+02	3.821E+02	1.575E+03
48.55	7.242E+00	1.357E+03	8.622E+00	2.851E+00	-6.916E-01	2.961E+00	9.389E-02	2.870E+00	-2.252E-01	1.504E+02	-1.741E+02	3.878E+02	1.582E+03
48.60	7.278E+00	1.355E+03	8.623E+00	2.876E+00	-6.804E-01	3.030E+00	9.825E-02	2.928E+00	-2.562E-01	1.475E+02	-1.697E+02	3.942E+02	1.594E+03
48.65	7.204E+00	1.353E+03	8.624E+00	2.899E+00	-6.660E-01	3.084E+00	1.037E-01	2.981E+00	-2.886E-01	1.409E+02	-1.643E+02	4.009E+02	1.609E+03
48.70	7.228E+00	1.351E+03	8.625E+00	2.911E+00	-6.483E-01	3.124E+00	1.100E-01	3.033E+00	-3.225E-01	1.333E+02	-1.589E+02	4.061E+02	1.619E+03
48.75	7.174E+00	1.350E+03	8.627E+00	2.898E+00	-6.274E-01	3.152E+00	1.165E-01	3.085E+00	-3.571E-01	1.292E+02	-1.530E+02	4.119E+02	1.621E+03
48.80	7.046E+00	1.350E+03	8.629E+00	2.856E+00	-6.033E-01	3.169E+00	1.230E-01	3.138E+00	-3.917E-01	1.276E+02	-1.462E+02	4.184E+02	1.616E+03
48.85	6.885E+00	1.349E+03	8.632E+00	2.786E+00	-5.765E-01	3.173E+00	1.295E-01	3.190E+00	-4.250E-01	1.290E+02	-1.398E+02	4.245E+02	1.607E+03
48.90	6.839E+00	1.349E+03	8.635E+00	2.701E+00	-5.483E-01	3.165E+00	1.362E-01	3.236E+00	-4.556E-01	1.310E+02	-1.335E+02	4.310E+02	1.601E+03
48.95	6.984E+00	1.348E+03	8.636E+00	2.610E+00	-5.206E-01	3.145E+00	1.427E-01	3.274E+00	-4.826E-01	1.338E+02	-1.276E+02	4.378E+02	1.595E+03
49.00	7.032E+00	1.348E+03	8.638E+00	2.521E+00	-4.947E-01	3.117E+00	1.483E-01	3.304E+00	-5.064E-01	1.341E+02	-1.211E+02	4.439E+02	1.587E+03
49.05	7.158E+00	1.348E+03	8.640E+00	2.441E+00	-4.709E-01	3.082E+00	1.531E-01	3.323E+00	-5.260E-01	1.326E+02	-1.153E+02	4.492E+02	1.586E+03
49.10	7.160E+00	1.348E+03	8.642E+00	2.371E+00	-4.495E-01	3.046E+00	1.565E-01	3.327E+00	-5.415E-01	1.278E+02	-1.086E+02	4.543E+02	1.591E+03
49.15	7.248E+00	1.348E+03	8.643E+00	2.308E+00	-4.306E-01	3.013E+00	1.576E-01	3.316E+00	-5.540E-01	1.215E+02	-1.024E+02	4.583E+02	1.596E+03
49.20	7.264E+00	1.348E+03	8.644E+00	2.247E+00	-4.135E-01	2.986E+00	1.562E-01	3.298E+00	-5.646E-01	1.146E+02	-9.558E+01	4.622E+02	1.595E+03
49.25	7.174E+00	1.348E+03	8.646E+00	2.183E+00	-3.964E-01	2.966E+00	1.534E-01	3.279E+00	-5.740E-01	1.116E+02	-8.839E+01	4.665E+02	1.595E+03
49.30	7.180E+00	1.349E+03	8.649E+00	2.111E+00	-3.768E-01	2.953E+00	1.505E-01	3.266E+00	-5.825E-01	1.098E+02	-8.221E+01	4.702E+02	1.599E+03
49.35	7.306E+00	1.349E+03	8.650E+00	2.033E+00	-3.546E-01	2.945E+00	1.479E-01	3.259E+00	-5.914E-01	1.118E+02	-7.685E+01	4.736E+02	1.604E+03
49.40	7.371E+00	1.350E+03	8.649E+00	1.957E+00	-3.316E-01	2.941E+00	1.449E-01	3.255E+00	-6.025E-01	1.146E+02	-6.979E+01	4.769E+02	1.596E+03
49.45	7.425E+00	1.351E+03	8.648E+00	1.899E+00	-3.090E-01	2.937E+00	1.412E-01	3.252E+00	-6.169E-01	1.169E+02	-6.151E+01	4.798E+02	1.575E+03
49.50	7.255E+00	1.351E+03	8.648E+00	1.871E+00	-2.868E-01	2.929E+00	1.381E-01	3.245E+00	-6.339E-01	1.172E+02	-5.431E+01	4.815E+02	1.557E+03
49.55	7.116E+00	1.351E+03	8.650E+00	1.877E+00	-2.651E-01	2.917E+00	1.366E-01	3.233E+00	-6.525E-01	1.154E+02	-4.657E+01	4.828E+02	1.554E+03
49.60	7.150E+00	1.350E+03	8.648E+00	1.917E+00	-2.444E-01	2.903E+00	1.365E-01	3.217E+00	-6.724E-01	1.111E+02	-3.762E+01	4.837E+02	1.561E+03
49.65	7.115E+00	1.350E+03	8.643E+00	1.978E+00	-2.250E-01	2.885E+00	1.358E-01	3.196E+00	-6.937E-01	1.062E+02	-2.918E+01	4.838E+02	1.556E+03
49.70	7.029E+00	1.349E+03	8.641E+00	2.042E+00	-2.062E-01	2.865E+00	1.339E-01	3.171E+00	-7.150E-01	1.041E+02	-2.072E+01	4.837E+02	1.547E+03
49.75	7.061E+00	1.349E+03	8.640E+00	2.093E+00	-1.864E-01	2.842E+00	1.313E-01	3.144E+00	-7.336E-01	1.065E+02	-1.129E+01	4.838E+02	1.547E+03
49.80	7.366E+00	1.348E+03	8.639E+00	2.123E+00	-1.648E-01	2.813E+00	1.282E-01	3.115E+00	-7.479E-01	1.111E+02	-3.160E+00	4.838E+02	1.558E+03
49.85	7.772E+00	1.347E+03	8.636E+00	2.133E+00	-1.423E-01	2.774E+00	1.243E-01	3.087E+00	-7.574E-01	1.197E+02	3.227E+00	4.836E+02	1.567E+03
49.90	7.853E+00	1.346E+03	8.630E+00	2.127E+00	-1.209E-01	2.718E+00	1.197E-01	3.065E+00	-7.630E-01	1.267E+02	1.084E+01	4.830E+02	1.559E+03
49.95	7.779E+00	1.345E+03	8.623E+00	2.114E+00	-1.018E-01	2.642E+00	1.139E-01	3.056E+00	-7.661E-01	1.322E+02	1.793E+01	4.817E+02	1.531E+03
50.00	7.738E+00	1.343E+03	8.618E+00	2.099E+00	-8.521E-02	2.550E+00	1.072E-01	3.061E+00	-7.674E-01	1.346E+02	2.447E+01	4.801E+02	1.497E+03
50.05	7.770E+00	1.341E+03	8.614E+00	2.085E+00	-7.038E-02	2.454E+00	9.996E-02	3.076E+00	-7.668E-01	1.328E+02	3.144E+01	4.776E+02	1.479E+03
50.10	7.942E+00	1.338E+03	8.609E+00	2.078E+00	-5.723E-02	2.366E+00	9.089E-02	3.089E+00	-7.644E-01	1.299E+02	3.707E+01	4.746E+02	1.480E+03
50.15	7.883E+00	1.335E+03	8.602E+00	2.075E+00	-4.568E-02	2.302E+00	7.851E-02	3.089E+00	-7.602E-01	1.237E+02	4.292E+01	4.716E+02	1.491E+03
50.20	7.780E+00	1.331E+03	8.595E+00	2.075E+00	-3.540E-02	2.269E+00	6.209E-02	3.071E+00	-7.550E-01	1.180E+02	4.997E+01	4.676E+02	1.503E+03
50.25	7.656E+00	1.328E+03	8.589E+00	2.076E+00	-2.485E-02	2.265E+00	4.195E-02	3.042E+00	-7.494E-01	1.142E+02	5.705E+01	4.636E+02	1.512E+03
50.30	7.620E+00	1.325E+03	8.586E+00	2.075E+00	-1.189E-02	2.284E+00	1.989E-02	3.016E+00	-7.441E-01	1.146E+02	6.320E+01	4.600E+02	1.525E+03
50.35	7.575E+00	1.322E+03	8.585E+00	2.073E+00	4.825E-03	2.317E+00	-1.912E-03	3.002E+00	-7.399E-01	1.175E+02	6.953E+01	4.557E+02	1.546E+03
50.40	7.516E+00	1.319E+03	8.582E+00	2.071E+00	2.505E-02	2.355E+00	-2.308E-02	3.006E+00	-7.381E-01	1.244E+02	7.543E+01	4.512E+02	1.561E+03
50.45	7.472E+00	1.317E+03	8.578E+00	2.077E+00	4.726E-02	2.394E+00	-4.400E-02	3.028E+00	-7.396E-01	1.309E+02	8.161E+01	4.479E+02	1.557E+03
50.50	7.644E+00	1.315E+03	8.575E+00	2.096E+00	6.961E-02	2.434E+00	-6.440E-02	3.058E+00	-7.443E-01	1.355E+02	8.942E+01	4.427E+02	1.537E+03
50.55	7.725E+00	1.312E+03	8.572E+00	2.134E+00	9.109E-02	2.476E+00	-8.460E-02	3.090E+00	-7.508E-01	1.373E+02	9.723E+01	4.374E+02	1.511E+03
50.60	7.613E+00	1.310E+03	8.571E+00	2.189E+00	1.112E-01	2.527E+00	-1.048E-01	3.118E+00	-7.571E-01	1.369E+02	1.041E+02	4.324E+02	1.493E+03
50.65	7.415E+00	1.307E+03	8.568E+00	2.254E+00	1.290E-01	2.587E+00	-1.256E-01	3.136E+00	-7.615E-01	1.341E+02	1.108E+02	4.261E+02	1.489E+03
50.70	7.377E+00	1.304E+03	8.566E+00	2.321E+00	1.436E-01	2.658E+00	-1.483E-01	3.140E+00	-7.630E-01	1.321E+02	1.171E+02	4.202E+02	1.496E+03
50.75	7.434E+00	1.301E+03	8.564E+00	2.383E+00	1.545E-01	2.737E+00	-1.733E-01	3.125E+00	-7.597E-01	1.308E+02	1.230E+02	4.137E+02	1.512E+03
50.80	7.435E+00	1.298E+03	8.562E+00	2.436E+00	1.612E-01	2.817E+00	-2.006E-01	3.093E+00	-7.510E-01	1.326E+02	1.279E+02	4.083E+02	1.528E+03
50.85	7.419E+00	1.296E+03	8.562E+00	2.487E+00	1.636E-01	2.885E+00	-2.288E-01	3.051E+00	-7.371E-01	1.362E+02	1.324E+02	4.027E+02	1.542E+03
50.90	7.614E+00	1.295E+03	8.564E+00	2.538E+00	1.631E-01	2.929E+00	-2.554E-01	3.007E+00	-7.179E-01	1.401E+02	1.362E+02	3.960E+02	1.559E+03
50.95	7.626E+00	1.293E+03	8.567E+00	2.591E+00	1.612E-01	2.941E+00	-2.791E-01	2.968E+00	-6.939E-01	1.449E+02	1.387E+02	3.901E+02	1.574E+03
51.00	7.345E+00	1.293E+03	8.568E+00	2.648E+00	1.584E-01	2.925E+00	-2.998E-01	2.933E+00	-6.665E-01	1.481E+02	1.405E+02	3.836E+02	1.577E+03
51.05	7.173E+00	1.292E+03	8.569E+00	2.707E+00	1.546E-01	2.893E+00	-3.192E-01	2.897E+00	-6.374E-01	1.503E+02	1.424E+02	3.756E+02	1.561E+03
51.10	7.307E+00	1.292E+03	8.569E+00	2.765E+00	1.502E-01	2.858E+00	-3.392E-01	2.853E+00	-6.077E-01	1.512E+02	1.440E+02	3.682E+02	1.531E+03
51.15	7.572E+00	1.291E+03	8.570E+00	2.819E+00	1.458E-01	2.830E+00	-3.607E-01	2.798E+00	-5.783E-01	1.510E+02	1.459E+02	3.607E+02	1.503E+03
51.20	7.743E+00	1.290E+03	8.572E+00	2.865E+00	1.426E-01	2.815E+00	-3.830E-01	2.729E+00	-5.495E-01	1.501E+02	1.485E+02	3.527E+02	1.493E+03
51.25	7.910E+00	1.289E+03	8.574E+00	2.900E+00	1.419E-01	2.811E+00	-4.056E-01	2.648E+00	-5.212E-01	1.498E+02	1.504E+02	3.450E+02	1.505E+03
51.30	7.924E+00	1.289E+03	8.573E+00	2.923E+00	1.433E-01	2.816E+00	-4.288E-01	2.560E+00	-4.946E-01	1.511E+02	1.518E+02	3.383E+02	1.522E+03
51.35	8.010E+00	1.288E+03	8.571E+00	2.938E+00	1.460E-01	2.827E+00	-4.531E-01	2.468E+00	-4.717E-01	1.516E+02	1.536E+02	3.302E+02	1.532E+03
51.40	8.052E+00	1.287E+03	8.573E+00	2.946E+00	1.496E-01	2.844E+00	-4.783E-01	2.381E+00	-4.523E-01	1.508E+02	1.557E+02	3.219E+02	1.536E+03
51.45	8.102E+00	1.287E+03	8.577E+00	2.952E+00	1.542E-01	2.865E+00	-5.029E-01	2.300E+00	-4.349E-01	1.504E+02	1.575E+02	3.147E+02	1.547E+03
51.50	8.031E+00	1.288E+03	8.582E+00	2.959E+00	1.595E-01	2.891E+00	-5.254E-01	2.227E+00	-4.180E-01	1.489E+02	1.586E+02	3.073E+02	1.567E+03
51.55	8.025E+00	1.288E+03	8.585E+00	2.972E+00	1.641E-01	2.924E+00	-5.457E-01	2.159E+00	-4.005E-01	1.468E+02	1.592E+02	2.995E+02	1.582E+03
51.60	8.136E+00	1.290E+03	8.587E+00	2.990E+00	1.665E-01	2.971E+00	-5.645E-01	2.094E+00	-3.820E-01	1.445E+02	1.591E+02	2.915E+02	1.581E+03
51.65	8.291E+00	1.291E+03	8.587E+00	3.012E+00	1.654E-01	3.032E+00	-5.826E-01	2.035E+00	-3.622E-01	1.421E+02	1.591E+02	2.843E+02	1.558E+03
51.70	8.496E+00	1.292E+03	8.591E+00	3.036E+00	1.604E-01	3.103E+00	-6.002E-01	1.984E+00	-3.411E-01	1.411E+02	1.588E+02	2.768E+02	1.530E+03
51.75	8.269E+00	1.293E+03	8.594E+00	3.060E+00	1.529E-01	3.172E+00	-6.160E-01	1.946E+00	-3.175E-01	1.420E+02	1.560E+02	2.691E+02	1.518E+03
51.80	8.248E+00	1.294E+03	8.595E+00	3.081E+00	1.427E-01	3.223E+00	-6.305E-01	1.926E+00	-2.929E-01	1.413E+02	1.536E+02	2.631E+02	1.516E+03
51.85	8.357E+00	1.294E+03	8.592E+00	3.100E+00	1.294E-01	3.247E+00	-6.446E-01	1.928E+00	-2.698E-01	1.408E+02	1.501E+02	2.552E+02	1.508E+03
51.90	8.337E+00	1.295E+03	8.592E+00	3.113E+00	1.145E-01	3.240E+00	-6.576E-01	1.953E+00	-2.482E-01	1.407E+02	1.472E+02	2.483E+02	1.502E+03
51.95	8.347E+00	1.295E+03	8.592E+00	3.116E+00	1.010E-01	3.203E+00	-6.683E-01	1.996E+00	-2.270E-01	1.384E+02	1.434E+02	2.409E+02	1.506E+03
52.00	8.414E+00	1.295E+03	8.591E+00	3.106E+00	8.981E-02	3.144E+00	-6.770E-01	2.044E+00	-2.059E-01	1.355E+02	1.395E+02	2.338E+02	1.514E+03
52.05	8.420E+00	1.295E+03	8.591E+00	3.078E+00	8.164E-02	3.075E+00	-6.849E-01	2.087E+00	-1.852E-01	1.367E+02	1.344E+02	2.258E+02	1.523E+03
52.10	8.485E+00	1.295E+03	8.589E+00	3.028E+00	7.716E-02	3.004E+00	-6.923E-01	2.117E+00	-1.644E-01	1.335E+02	1.309E+02	2.192E+02	1.529E+03
52.15	8.558E+00	1.295E+03	8.586E+00	2.960E+00	7.581E-02	2.939E+00	-7.005E-01	2.132E+00	-1.447E-01	1.311E+02	1.275E+02	2.125E+02	1.521E+03
52.20	8.418E+00	1.295E+03	8.583E+00	2.876E+00	7.751E-02	2.882E+00	-7.092E-01	2.131E+00	-1.262E-01	1.288E+02	1.240E+02	2.056E+02	1.503E+03
52.25	8.164E+00	1.294E+03	8.580E+00	2.781E+00	8.205E-02	2.833E+00	-7.173E-01	2.120E+00	-1.087E-01	1.248E+02	1.208E+02	1.997E+02	1.482E+03
52.30	8.097E+00	1.293E+03	8.575E+00	2.679E+00	8.791E-02	2.789E+00	-7.242E-01	2.103E+00	-9.266E-02	1.205E+02	1.177E+02	1.940E+02	1.461E+03
52.35	8.123E+00	1.292E+03	8.570E+00	2.575E+00	9.326E-02	2.749E+00	-7.296E-01	2.083E+00	-7.806E-02	1.157E+02	1.133E+02	1.876E+02	1.445E+03
52.40	8.114E+00	1.290E+03	8.564E+00	2.474E+00	9.609E-02	2.712E+00	-7.337E-01	2.057E+00	-6.413E-02	1.132E+02	1.089E+02	1.828E+02	1.440E+03
52.45	8.182E+00	1.287E+03	8.559E+00	2.380E+00	9.508E-02	2.684E+00	-7.369E-01	2.030E+00	-5.051E-02	1.104E+02	1.040E+02	1.781E+02	1.447E+03
52.50	8.041E+00	1.285E+03	8.554E+00	2.297E+00	8.936E-02	2.674E+00	-7.400E-01	2.004E+00	-3.699E-02	1.080E+02	9.840E+01	1.732E+02	1.462E+03
52.55	7.847E+00	1.282E+03	8.549E+00	2.228E+00	7.871E-02	2.689E+00	-7.437E-01	1.984E+00	-2.275E-02	1.078E+02	9.207E+01	1.688E+02	1.479E+03
52.60	7.815E+00	1.280E+03	8.546E+00	2.175E+00	6.364E-02	2.736E+00	-7.477E-01	1.972E+00	-6.762E-03	1.104E+02	8.599E+01	1.653E+02	1.493E+03
52.65	7.727E+00	1.278E+03	8.545E+00	2.141E+00	4.545E-02	2.808E+00	-7.513E-01	1.968E+00	1.185E-02	1.115E+02	7.829E+01	1.613E+02	1.507E+03
52.70	7.629E+00	1.276E+03	8.542E+00	2.130E+00	2.385E-02	2.896E+00	-7.548E-01	1.971E+00	3.268E-02	1.122E+02	7.112E+01	1.577E+02	1.512E+03
52.75	7.571E+00	1.274E+03	8.539E+00	2.144E+00	-1.186E-03	2.994E+00	-7.587E-01	1.980E+00	5.499E-02	1.135E+02	6.332E+01	1.542E+02	1.505E+03
52.80	7.406E+00	1.272E+03	8.538E+00	2.182E+00	-2.869E-02	3.095E+00	-7.628E-01	1.993E+00	7.807E-02	1.138E+02	5.589E+01	1.507E+02	1.493E+03
52.85	7.299E+00	1.271E+03	8.538E+00	2.239E+00	-5.694E-02	3.190E+00	-7.667E-01	2.016E+00	1.011E-01	1.130E+02	4.800E+01	1.473E+02	1.487E+03
52.90	7.452E+00	1.269E+03	8.536E+00	2.308E+00	-8.523E-02	3.278E+00	-7.707E-01	2.053E+00	1.222E-01	1.127E+02	4.038E+01	1.441E+02	1.481E+03
52.95	7.663E+00	1.267E+03	8.535E+00	2.385E+00	-1.129E-01	3.361E+00	-7.752E-01	2.106E+00	1.396E-01	1.145E+02	3.331E+01	1.412E+02	1.477E+03
53.00	7.869E+00	1.265E+03	8.534E+00	2.469E+00	-1.393E-01	3.436E+00	-7.797E-01	2.173E+00	1.531E-01	1.173E+02	2.520E+01	1.385E+02	1.481E+03
53.05	7.844E+00	1.263E+03	8.535E+00	2.562E+00	-1.648E-01	3.501E+00	-7.832E-01	2.244E+00	1.630E-01	1.210E+02	1.853E+01	1.368E+02	1.493E+03
53.10	7.854E+00	1.262E+03	8.537E+00	2.666E+00	-1.893E-01	3.552E+00	-7.845E-01	2.311E+00	1.699E-01	1.249E+02	1.060E+01	1.353E+02	1.515E+03
53.15	7.924E+00	1.261E+03	8.539E+00	2.776E+00	-2.131E-01	3.582E+00	-7.822E-01	2.369E+00	1.739E-01	1.273E+02	3.562E+00	1.341E+02	1.536E+03
53.20	7.876E+00	1.261E+03	8.541E+00	2.886E+00	-2.362E-01	3.578E+00	-7.742E-01	2.420E+00	1.754E-01	1.266E+02	-2.596E+00	1.330E+02	1.547E+03
53.25	7.828E+00	1.261E+03	8.544E+00	2.987E+00	-2.588E-01	3.534E+00	-7.592E-01	2.464E+00	1.748E-01	1.296E+02	-1.013E+01	1.319E+02	1.546E+03
53.30	7.936E+00	1.262E+03	8.546E+00	3.075E+00	-2.809E-01	3.450E+00	-7.368E-01	2.508E+00	1.732E-01	1.304E+02	-1.693E+01	1.313E+02	1.535E+03
53.35	7.980E+00	1.262E+03	8.547E+00	3.141E+00	-3.030E-01	3.334E+00	-7.081E-01	2.554E+00	1.712E-01	1.315E+02	-2.463E+01	1.315E+02	1.515E+03
53.40	7.878E+00	1.262E+03	8.549E+00	3.180E+00	-3.256E-01	3.191E+00	-6.746E-01	2.600E+00	1.695E-01	1.348E+02	-3.321E+01	1.326E+02	1.492E+03
53.45	7.840E+00	1.262E+03	8.549E+00	3.186E+00	-3.485E-01	3.030E+00	-6.379E-01	2.642E+00	1.689E-01	1.375E+02	-4.133E+01	1.343E+02	1.473E+03
53.50	7.754E+00	1.262E+03	8.548E+00	3.159E+00	-3.715E-01	2.853E+00	-6.001E-01	2.674E+00	1.694E-01	1.405E+02	-5.046E+01	1.365E+02	1.461E+03
53.55	7.913E+00	1.261E+03	8.545E+00	3.106E+00	-3.947E-01	2.665E+00	-5.623E-01	2.693E+00	1.709E-01	1.422E+02	-5.947E+01	1.386E+02	1.454E+03
53.60	8.096E+00	1.260E+03	8.544E+00	3.041E+00	-4.184E-01	2.477E+00	-5.258E-01	2.702E+00	1.728E-01	1.414E+02	-6.770E+01	1.404E+02	1.455E+03
53.65	8.010E+00	1.259E+03	8.544E+00	2.977E+00	-4.421E-01	2.296E+00	-4.914E-01	2.707E+00	1.751E-01	1.385E+02	-7.621E+01	1.424E+02	1.469E+03
53.70	7.984E+00	1.259E+03	8.545E+00	2.920E+00	-4.650E-01	2.129E+00	-4.593E-01	2.717E+00	1.772E-01	1.338E+02	-8.532E+01	1.449E+02	1.495E+03
53.75	8.063E+00	1.258E+03	8.544E+00	2.869E+00	-4.868E-01	1.985E+00	-4.300E-01	2.736E+00	1.779E-01	1.246E+02	-9.215E+01	1.479E+02	1.517E+03
53.80	8.110E+00	1.258E+03	8.545E+00	2.821E+00	-5.063E-01	1.863E+00	-4.036E-01	2.770E+00	1.760E-01	1.196E+02	-9.894E+01	1.507E+02	1.528E+03
53.85	8.320E+00	1.259E+03	8.547E+00	2.769E+00	-5.216E-01	1.770E+00	-3.796E-01	2.820E+00	1.720E-01	1.181E+02	-1.064E+02	1.546E+02	1.532E+03
53.90	8.546E+00	1.259E+03	8.548E+00	2.712E+00	-5.320E-01	1.709E+00	-3.574E-01	2.883E+00	1.657E-01	1.180E+02	-1.128E+02	1.589E+02	1.524E+03
53.95	8.544E+00	1.260E+03	8.549E+00	2.657E+00	-5.384E-01	1.678E+00	-3.366E-01	2.958E+00	1.568E-01	1.217E+02	-1.185E+02	1.624E+02	1.506E+03
54.00	8.433E+00	1.260E+03	8.549E+00	2.610E+00	-5.420E-01	1.670E+00	-3.172E-01	3.041E+00	1.455E-01	1.253E+02	-1.246E+02	1.678E+02	1.483E+03
54.05	8.344E+00	1.260E+03	8.547E+00	2.576E+00	-5.447E-01	1.681E+00	-2.986E-01	3.121E+00	1.324E-01	1.288E+02	-1.298E+02	1.732E+02	1.459E+03
54.10	8.252E+00	1.260E+03	8.545E+00	2.559E+00	-5.484E-01	1.706E+00	-2.805E-01	3.185E+00	1.184E-01	1.293E+02	-1.341E+02	1.775E+02	1.442E+03
54.15	8.131E+00	1.259E+03	8.542E+00	2.561E+00	-5.550E-01	1.737E+00	-2.631E-01	3.230E+00	1.046E-01	1.273E+02	-1.383E+02	1.835E+02	1.435E+03
54.20	8.155E+00	1.258E+03	8.539E+00	2.582E+00	-5.661E-01	1.770E+00	-2.461E-01	3.250E+00	9.155E-02	1.270E+02	-1.431E+02	1.889E+02	1.437E+03
54.25	8.019E+00	1.257E+03	8.538E+00	2.623E+00	-5.821E-01	1.800E+00	-2.286E-01	3.249E+00	8.081E-02	1.268E+02	-1.481E+02	1.943E+02	1.454E+03
54.30	8.054E+00	1.255E+03	8.537E+00	2.679E+00	-6.023E-01	1.828E+00	-2.100E-01	3.228E+00	7.372E-02	1.241E+02	-1.531E+02	2.008E+02	1.480E+03
54.35	8.052E+00	1.255E+03	8.537E+00	2.742E+00	-6.255E-01	1.856E+00	-1.908E-01	3.190E+00	7.065E-02	1.261E+02	-1.593E+02	2.063E+02	1.504E+03
54.40	8.042E+00	1.254E+03	8.535E+00	2.800E+00	-6.503E-01	1.883E+00	-1.711E-01	3.135E+00	7.197E-02	1.266E+02	-1.645E+02	2.138E+02	1.517E+03
54.45	8.162E+00	1.254E+03	8.534E+00	2.851E+00	-6.756E-01	1.907E+00	-1.516E-01	3.060E+00	7.720E-02	1.318E+02	-1.700E+02	2.199E+02	1.510E+03
54.50	8.233E+00	1.254E+03	8.534E+00	2.895E+00	-7.001E-01	1.925E+00	-1.320E-01	2.963E+00	8.640E-02	1.399E+02	-1.760E+02	2.270E+02	1.493E+03
54.55	8.223E+00	1.254E+03	8.532E+00	2.934E+00	-7.226E-01	1.932E+00	-1.117E-01	2.843E+00	9.886E-02	1.458E+02	-1.812E+02	2.345E+02	1.469E+03
54.60	8.093E+00	1.253E+03	8.529E+00	2.973E+00	-7.430E-01	1.926E+00	-9.121E-02	2.701E+00	1.124E-01	1.514E+02	-1.859E+02	2.406E+02	1.440E+03
54.65	7.862E+00	1.251E+03	8.525E+00	3.014E+00	-7.610E-01	1.910E+00	-7.116E-02	2.543E+00	1.250E-01	1.547E+02	-1.900E+02	2.473E+02	1.413E+03
54.70	7.684E+00	1.250E+03	8.521E+00	3.056E+00	-7.756E-01	1.891E+00	-5.176E-02	2.377E+00	1.353E-01	1.563E+02	-1.936E+02	2.546E+02	1.402E+03
54.75	7.691E+00	1.247E+03	8.514E+00	3.096E+00	-7.867E-01	1.874E+00	-3.396E-02	2.213E+00	1.402E-01	1.510E+02	-1.951E+02	2.611E+02	1.399E+03
54.80	7.739E+00	1.244E+03	8.508E+00	3.131E+00	-7.952E-01	1.865E+00	-1.890E-02	2.067E+00	1.371E-01	1.484E+02	-1.963E+02	2.659E+02	1.400E+03
54.85	7.849E+00	1.242E+03	8.506E+00	3.158E+00	-7.999E-01	1.867E+00	-5.284E-03	1.956E+00	1.266E-01	1.467E+02	-1.968E+02	2.743E+02	1.421E+03
54.90	8.019E+00	1.239E+03	8.502E+00	3.176E+00	-8.003E-01	1.878E+00	8.580E-03	1.886E+00	1.087E-01	1.435E+02	-1.962E+02	2.815E+02	1.451E+03
54.95	7.983E+00	1.237E+03	8.499E+00	3.188E+00	-7.975E-01	1.896E+00	2.319E-02	1.862E+00	8.395E-02	1.411E+02	-1.952E+02	2.870E+02	1.474E+03
55.00	7.978E+00	1.235E+03	8.497E+00	3.194E+00	-7.926E-01	1.918E+00	3.876E-02	1.878E+00	5.445E-02	1.431E+02	-1.939E+02	2.954E+02	1.484E+03
55.05	8.123E+00	1.233E+03	8.496E+00	3.195E+00	-7.858E-01	1.943E+00	5.625E-02	1.928E+00	2.264E-02	1.478E+02	-1.928E+02	3.040E+02	1.482E+03
55.10	8.358E+00	1.232E+03	8.496E+00	3.195E+00	-7.776E-01	1.966E+00	7.617E-02	2.000E+00	-9.050E-03	1.494E+02	-1.914E+02	3.105E+02	1.474E+03
55.15	8.512E+00	1.231E+03	8.494E+00	3.195E+00	-7.701E-01	1.988E+00	9.695E-02	2.086E+00	-3.926E-02	1.540E+02	-1.907E+02	3.182E+02	1.458E+03
55.20	8.563E+00	1.229E+03	8.491E+00	3.199E+00	-7.646E-01	2.009E+00	1.168E-01	2.183E+00	-6.800E-02	1.578E+02	-1.888E+02	3.281E+02	1.434E+03
55.25	8.513E+00	1.227E+03	8.488E+00	3.210E+00	-7.612E-01	2.032E+00	1.349E-01	2.291E+00	-9.572E-02	1.562E+02	-1.875E+02	3.336E+02	1.407E+03
55.30	8.643E+00	1.225E+03	8.486E+00	3.226E+00	-7.595E-01	2.062E+00	1.503E-01	2.409E+00	-1.219E-01	1.546E+02	-1.865E+02	3.399E+02	1.396E+03
55.35	8.722E+00	1.222E+03	8.483E+00	3.239E+00	-7.593E-01	2.107E+00	1.616E-01	2.538E+00	-1.470E-01	1.529E+02	-1.841E+02	3.493E+02	1.403E+03
55.40	8.595E+00	1.220E+03	8.481E+00	3.245E+00	-7.593E-01	2.169E+00	1.683E-01	2.673E+00	-1.726E-01	1.466E+02	-1.817E+02	3.551E+02	1.418E+03
55.45	8.443E+00	1.217E+03	8.481E+00	3.238E+00	-7.579E-01	2.246E+00	1.707E-01	2.809E+00	-1.984E-01	1.426E+02	-1.796E+02	3.609E+02	1.445E+03
55.50	8.533E+00	1.216E+03	8.484E+00	3.210E+00	-7.530E-01	2.334E+00	1.706E-01	2.935E+00	-2.230E-01	1.465E+02	-1.771E+02	3.701E+02	1.482E+03
55.55	8.590E+00	1.215E+03	8.485E+00	3.162E+00	-7.423E-01	2.419E+00	1.702E-01	3.041E+00	-2.469E-01	1.486E+02	-1.745E+02	3.774E+02	1.511E+03
55.60	8.595E+00	1.214E+03	8.486E+00	3.098E+00	-7.255E-01	2.494E+00	1.705E-01	3.120E+00	-2.702E-01	1.470E+02	-1.714E+02	3.823E+02	1.519E+03
55.65	8.625E+00	1.214E+03	8.488E+00	3.022E+00	-7.036E-01	2.552E+00	1.723E-01	3.165E+00	-2.928E-01	1.471E+02	-1.662E+02	3.897E+02	1.505E+03
55.70	8.541E+00	1.215E+03	8.489E+00	2.942E+00	-6.775E-01	2.594E+00	1.760E-01	3.180E+00	-3.152E-01	1.461E+02	-1.602E+02	3.971E+02	1.474E+03
55.75	8.420E+00	1.215E+03	8.490E+00	2.863E+00	-6.477E-01	2.620E+00	1.817E-01	3.168E+00	-3.379E-01	1.415E+02	-1.548E+02	4.020E+02	1.438E+03
55.80	8.187E+00	1.214E+03	8.490E+00	2.782E+00	-6.159E-01	2.634E+00	1.886E-01	3.133E+00	-3.607E-01	1.350E+02	-1.485E+02	4.075E+02	1.408E+03
55.85	8.051E+00	1.213E+03	8.486E+00	2.693E+00	-5.839E-01	2.637E+00	1.954E-01	3.079E+00	-3.842E-01	1.303E+02	-1.414E+02	4.140E+02	1.384E+03
55.90	7.985E+00	1.212E+03	8.481E+00	2.595E+00	-5.526E-01	2.628E+00	2.013E-01	3.009E+00	-4.083E-01	1.249E+02	-1.343E+02	4.194E+02	1.367E+03
55.95	8.040E+00	1.210E+03	8.478E+00	2.492E+00	-5.228E-01	2.608E+00	2.061E-01	2.926E+00	-4.317E-01	1.214E+02	-1.280E+02	4.244E+02	1.366E+03
56.00	8.016E+00	1.207E+03	8.475E+00	2.389E+00	-4.956E-01	2.581E+00	2.096E-01	2.835E+00	-4.532E-01	1.209E+02	-1.211E+02	4.307E+02	1.386E+03
56.05	7.789E+00	1.205E+03	8.473E+00	2.292E+00	-4.710E-01	2.554E+00	2.114E-01	2.743E+00	-4.722E-01	1.186E+02	-1.144E+02	4.362E+02	1.416E+03
56.10	7.885E+00	1.203E+03	8.472E+00	2.203E+00	-4.487E-01	2.531E+00	2.112E-01	2.658E+00	-4.886E-01	1.184E+02	-1.089E+02	4.404E+02	1.447E+03
56.15	7.962E+00	1.202E+03	8.473E+00	2.127E+00	-4.281E-01	2.520E+00	2.092E-01	2.588E+00	-5.017E-01	1.192E+02	-1.024E+02	4.453E+02	1.474E+03
56.20	8.130E+00	1.202E+03	8.473E+00	2.071E+00	-4.087E-01	2.524E+00	2.054E-01	2.539E+00	-5.119E-01	1.179E+02	-9.568E+01	4.496E+02	1.486E+03
56.25	8.334E+00	1.202E+03	8.473E+00	2.037E+00	-3.903E-01	2.543E+00	1.992E-01	2.518E+00	-5.201E-01	1.139E+02	-8.942E+01	4.527E+02	1.476E+03
56.30	8.286E+00	1.201E+03	8.474E+00	2.020E+00	-3.723E-01	2.582E+00	1.905E-01	2.528E+00	-5.271E-01	1.109E+02	-8.281E+01	4.561E+02	1.453E+03
56.35	8.111E+00	1.201E+03	8.475E+00	2.015E+00	-3.538E-01	2.641E+00	1.796E-01	2.565E+00	-5.335E-01	1.078E+02	-7.555E+01	4.595E+02	1.430E+03
56.40	8.066E+00	1.201E+03	8.474E+00	2.016E+00	-3.343E-01	2.715E+00	1.665E-01	2.623E+00	-5.407E-01	1.044E+02	-6.902E+01	4.621E+02	1.409E+03
56.45	7.929E+00	1.200E+03	8.471E+00	2.015E+00	-3.142E-01	2.799E+00	1.519E-01	2.692E+00	-5.504E-01	1.042E+02	-6.267E+01	4.642E+02	1.389E+03
56.50	7.934E+00	1.199E+03	8.469E+00	2.008E+00	-2.938E-01	2.884E+00	1.367E-01	2.765E+00	-5.633E-01	1.057E+02	-5.396E+01	4.667E+02	1.377E+03
56.55	8.033E+00	1.197E+03	8.467E+00	1.996E+00	-2.722E-01	2.962E+00	1.225E-01	2.836E+00	-5.796E-01	1.088E+02	-4.641E+01	4.685E+02	1.379E+03
56.60	8.079E+00	1.195E+03	8.467E+00	1.980E+00	-2.492E-01	3.026E+00	1.104E-01	2.901E+00	-5.988E-01	1.121E+02	-3.987E+01	4.699E+02	1.399E+03
56.65	8.072E+00	1.194E+03	8.465E+00	1.965E+00	-2.260E-01	3.075E+00	1.006E-01	2.960E+00	-6.211E-01	1.132E+02	-3.123E+01	4.713E+02	1.426E+03
56.70	7.996E+00	1.193E+03	8.462E+00	1.954E+00	-2.034E-01	3.107E+00	9.183E-02	3.015E+00	-6.468E-01	1.136E+02	-2.303E+01	4.721E+02	1.441E+03
56.75	7.797E+00	1.192E+03	8.464E+00	1.946E+00	-1.807E-01	3.119E+00	8.444E-02	3.066E+00	-6.739E-01	1.109E+02	-1.462E+01	4.727E+02	1.448E+03
56.80	7.703E+00	1.192E+03	8.467E+00	1.936E+00	-1.569E-01	3.115E+00	7.955E-02	3.108E+00	-6.995E-01	1.066E+02	-5.696E+00	4.728E+02	1.457E+03
56.85	7.647E+00	1.192E+03	8.469E+00	1.921E+00	-1.315E-01	3.100E+00	7.647E-02	3.136E+00	-7.214E-01	1.044E+02	2.747E+00	4.724E+02	1.463E+03
56.90	7.692E+00	1.192E+03	8.467E+00	1.901E+00	-1.055E-01	3.076E+00	7.332E-02	3.146E+00	-7.385E-01	1.019E+02	9.862E+00	4.717E+02	1.453E+03
56.95	7.866E+00	1.192E+03	8.467E+00	1.880E+00	-8.081E-02	3.048E+00	6.843E-02	3.137E+00	-7.506E-01	9.968E+01	1.796E+01	4.710E+02	1.426E+03
57.00	8.001E+00	1.192E+03	8.465E+00	1.860E+00	-5.847E-02	3.018E+00	6.136E-02	3.111E+00	-7.577E-01	9.997E+01	2.683E+01	4.695E+02	1.395E+03
57.05	8.085E+00	1.191E+03	8.465E+00	1.844E+00	-3.821E-02	2.983E+00	5.203E-02	3.075E+00	-7.600E-01	1.026E+02	3.351E+01	4.688E+02	1.375E+03
57.10	8.075E+00	1.190E+03	8.465E+00	1.833E+00	-1.987E-02	2.938E+00	4.182E-02	3.038E+00	-7.585E-01	1.053E+02	3.954E+01	4.677E+02	1.375E+03
57.15	7.968E+00	1.189E+03	8.463E+00	1.828E+00	-4.393E-03	2.883E+00	3.102E-02	3.007E+00	-7.556E-01	1.097E+02	4.664E+01	4.654E+02	1.388E+03
57.20	7.847E+00	1.188E+03	8.459E+00	1.833E+00	8.330E-03	2.819E+00	1.895E-02	2.987E+00	-7.530E-01	1.142E+02	5.285E+01	4.627E+02	1.398E+03
57.25	7.817E+00	1.186E+03	8.457E+00	1.849E+00	1.890E-02	2.755E+00	5.203E-03	2.983E+00	-7.517E-01	1.186E+02	5.821E+01	4.603E+02	1.406E+03
57.30	7.622E+00	1.186E+03	8.460E+00	1.877E+00	2.864E-02	2.705E+00	-9.396E-03	2.991E+00	-7.507E-01	1.207E+02	6.491E+01	4.561E+02	1.426E+03
57.35	7.628E+00	1.185E+03	8.461E+00	1.918E+00	3.876E-02	2.677E+00	-2.565E-02	2.999E+00	-7.489E-01	1.212E+02	7.048E+01	4.524E+02	1.447E+03
57.40	7.809E+00	1.185E+03	8.462E+00	1.964E+00	4.982E-02	2.675E+00	-4.400E-02	3.000E+00	-7.461E-01	1.202E+02	7.630E+01	4.484E+02	1.459E+03
57.45	7.740E+00	1.185E+03	8.462E+00	2.007E+00	6.249E-02	2.693E+00	-6.408E-02	2.988E+00	-7.425E-01	1.187E+02	8.357E+01	4.437E+02	1.454E+03
57.50	7.636E+00	1.185E+03	8.461E+00	2.038E+00	7.806E-02	2.719E+00	-8.499E-02	2.970E+00	-7.378E-01	1.173E+02	9.083E+01	4.388E+02	1.434E+03
57.55	7.756E+00	1.186E+03	8.462E+00	2.054E+00	9.696E-02	2.742E+00	-1.057E-01	2.949E+00	-7.324E-01	1.183E+02	9.758E+01	4.346E+02	1.410E+03
57.60	7.904E+00	1.185E+03	8.464E+00	2.055E+00	1.186E-01	2.759E+00	-1.249E-01	2.932E+00	-7.269E-01	1.189E+02	1.046E+02	4.292E+02	1.396E+03
57.65	8.001E+00	1.185E+03	8.462E+00	2.049E+00	1.410E-01	2.769E+00	-1.436E-01	2.928E+00	-7.229E-01	1.208E+02	1.105E+02	4.235E+02	1.390E+03
57.70	7.864E+00	1.184E+03	8.460E+00	2.044E+00	1.612E-01	2.779E+00	-1.633E-01	2.938E+00	-7.213E-01	1.215E+02	1.161E+02	4.188E+02	1.385E+03
57.75	7.720E+00	1.184E+03	8.459E+00	2.049E+00	1.776E-01	2.797E+00	-1.844E-01	2.959E+00	-7.217E-01	1.212E+02	1.220E+02	4.128E+02	1.386E+03
57.80	7.695E+00	1.183E+03	8.459E+00	2.065E+00	1.902E-01	2.830E+00	-2.069E-01	2.976E+00	-7.215E-01	1.194E+02	1.274E+02	4.073E+02	1.397E+03
57.85	7.671E+00	1.182E+03	8.460E+00	2.093E+00	1.994E-01	2.878E+00	-2.300E-01	2.975E+00	-7.175E-01	1.165E+02	1.324E+02	4.014E+02	1.419E+03
57.90	7.558E+00	1.182E+03	8.460E+00	2.126E+00	2.056E-01	2.930E+00	-2.530E-01	2.948E+00	-7.084E-01	1.143E+02	1.366E+02	3.947E+02	1.439E+03
57.95	7.527E+00	1.182E+03	8.461E+00	2.162E+00	2.094E-01	2.974E+00	-2.754E-01	2.898E+00	-6.941E-01	1.146E+02	1.404E+02	3.889E+02	1.448E+03
58.00	7.395E+00	1.182E+03	8.463E+00	2.195E+00	2.121E-01	2.998E+00	-2.956E-01	2.835E+00	-6.750E-01	1.159E+02	1.435E+02	3.817E+02	1.451E+03
58.05	7.403E+00	1.183E+03	8.464E+00	2.225E+00	2.141E-01	2.996E+00	-3.135E-01	2.773E+00	-6.525E-01	1.182E+02	1.462E+02	3.748E+02	1.445E+03
58.10	7.606E+00	1.183E+03	8.463E+00	2.255E+00	2.152E-01	2.970E+00	-3.299E-01	2.723E+00	-6.289E-01	1.217E+02	1.484E+02	3.683E+02	1.425E+03
58.15	7.523E+00	1.183E+03	8.463E+00	2.287E+00	2.153E-01	2.924E+00	-3.455E-01	2.685E+00	-6.053E-01	1.266E+02	1.501E+02	3.610E+02	1.400E+03
58.20	7.368E+00	1.183E+03	8.463E+00	2.324E+00	2.149E-01	2.866E+00	-3.606E-01	2.650E+00	-5.811E-01	1.302E+02	1.514E+02	3.534E+02	1.382E+03
58.25	7.394E+00	1.183E+03	8.460E+00	2.366E+00	2.138E-01	2.806E+00	-3.765E-01	2.612E+00	-5.566E-01	1.321E+02	1.525E+02	3.460E+02	1.371E+03
58.30	7.454E+00	1.182E+03	8.459E+00	2.411E+00	2.117E-01	2.751E+00	-3.938E-01	2.566E+00	-5.326E-01	1.331E+02	1.544E+02	3.386E+02	1.368E+03
58.35	7.503E+00	1.181E+03	8.457E+00	2.459E+00	2.092E-01	2.704E+00	-4.122E-01	2.508E+00	-5.092E-01	1.326E+02	1.555E+02	3.301E+02	1.378E+03
58.40	7.573E+00	1.180E+03	8.456E+00	2.504E+00	2.069E-01	2.665E+00	-4.315E-01	2.437E+00	-4.861E-01	1.322E+02	1.570E+02	3.228E+02	1.396E+03
58.45	7.593E+00	1.179E+03	8.455E+00	2.541E+00	2.055E-01	2.629E+00	-4.508E-01	2.353E+00	-4.635E-01	1.305E+02	1.582E+02	3.152E+02	1.417E+03
58.50	7.498E+00	1.179E+03	8.455E+00	2.568E+00	2.055E-01	2.597E+00	-4.699E-01	2.258E+00	-4.413E-01	1.280E+02	1.597E+02	3.066E+02	1.431E+03
58.55	7.587E+00	1.179E+03	8.456E+00	2.585E+00	2.073E-01	2.570E+00	-4.884E-01	2.158E+00	-4.191E-01	1.289E+02	1.605E+02	2.987E+02	1.437E+03
58.60	7.647E+00	1.179E+03	8.457E+00	2.598E+00	2.101E-01	2.556E+00	-5.060E-01	2.069E+00	-3.968E-01	1.301E+02	1.609E+02	2.919E+02	1.439E+03
58.65	7.602E+00	1.179E+03	8.457E+00	2.617E+00	2.119E-01	2.561E+00	-5.236E-01	2.000E+00	-3.754E-01	1.294E+02	1.609E+02	2.838E+02	1.431E+03
[...]
622.95	8.982E+00	2.218E+03	9.886E+00	4.128E+00	-4.672E-02	3.607E+00	-7.053E-01	3.102E+00	-3.189E-01	2.184E+02	1.230E+02	3.287E+02	2.322E+03
623.00	8.894E+00	2.220E+03	9.888E+00	4.111E+00	-5.953E-02	3.622E+00	-7.085E-01	3.146E+00	-2.992E-01	2.223E+02	1.170E+02	3.202E+02	2.321E+03
623.05	8.804E+00	2.222E+03	9.888E+00	4.098E+00	-7.262E-02	3.646E+00	-7.151E-01	3.178E+00	-2.778E-01	2.260E+02	1.127E+02	3.135E+02	2.301E+03
623.10	8.886E+00	2.223E+03	9.888E+00	4.099E+00	-8.614E-02	3.675E+00	-7.258E-01	3.198E+00	-2.550E-01	2.233E+02	1.083E+02	3.055E+02	2.272E+03
623.15	8.960E+00	2.224E+03	9.889E+00	4.119E+00	-1.003E-01	3.703E+00	-7.400E-01	3.208E+00	-2.305E-01	2.205E+02	1.021E+02	2.972E+02	2.247E+03
623.20	9.114E+00	2.224E+03	9.890E+00	4.152E+00	-1.149E-01	3.723E+00	-7.564E-01	3.211E+00	-2.049E-01	2.132E+02	9.869E+01	2.917E+02	2.237E+03
623.25	9.311E+00	2.224E+03	9.892E+00	4.192E+00	-1.296E-01	3.723E+00	-7.737E-01	3.204E+00	-1.792E-01	2.096E+02	9.191E+01	2.838E+02	2.250E+03
623.30	9.251E+00	2.224E+03	9.892E+00	4.228E+00	-1.441E-01	3.702E+00	-7.905E-01	3.187E+00	-1.538E-01	2.046E+02	8.610E+01	2.768E+02	2.277E+03
623.35	9.148E+00	2.225E+03	9.893E+00	4.254E+00	-1.595E-01	3.669E+00	-8.065E-01	3.164E+00	-1.304E-01	2.073E+02	8.195E+01	2.721E+02	2.303E+03
623.40	9.114E+00	2.226E+03	9.898E+00	4.272E+00	-1.747E-01	3.637E+00	-8.211E-01	3.148E+00	-1.094E-01	2.111E+02	7.596E+01	2.660E+02	2.333E+03
623.45	9.009E+00	2.228E+03	9.906E+00	4.283E+00	-1.889E-01	3.625E+00	-8.333E-01	3.153E+00	-9.053E-02	2.177E+02	6.942E+01	2.607E+02	2.368E+03
623.50	8.867E+00	2.231E+03	9.913E+00	4.295E+00	-2.030E-01	3.645E+00	-8.421E-01	3.184E+00	-7.285E-02	2.246E+02	6.237E+01	2.567E+02	2.398E+03
623.55	8.974E+00	2.235E+03	9.921E+00	4.319E+00	-2.192E-01	3.693E+00	-8.475E-01	3.235E+00	-5.665E-02	2.299E+02	5.551E+01	2.533E+02	2.411E+03
623.60	8.959E+00	2.239E+03	9.928E+00	4.366E+00	-2.404E-01	3.757E+00	-8.493E-01	3.300E+00	-4.249E-02	2.315E+02	4.719E+01	2.493E+02	2.399E+03
623.65	9.006E+00	2.243E+03	9.935E+00	4.438E+00	-2.684E-01	3.825E+00	-8.463E-01	3.375E+00	-3.022E-02	2.303E+02	3.911E+01	2.461E+02	2.369E+03
623.70	9.044E+00	2.247E+03	9.943E+00	4.531E+00	-3.027E-01	3.883E+00	-8.376E-01	3.449E+00	-1.880E-02	2.259E+02	3.122E+01	2.434E+02	2.339E+03
623.75	8.917E+00	2.250E+03	9.952E+00	4.628E+00	-3.400E-01	3.923E+00	-8.227E-01	3.514E+00	-6.976E-03	2.203E+02	2.089E+01	2.400E+02	2.326E+03
623.80	8.871E+00	2.252E+03	9.958E+00	4.707E+00	-3.771E-01	3.938E+00	-8.023E-01	3.567E+00	5.796E-03	2.168E+02	9.252E+00	2.369E+02	2.329E+03
623.85	8.970E+00	2.255E+03	9.962E+00	4.751E+00	-4.118E-01	3.929E+00	-7.790E-01	3.605E+00	1.836E-02	2.151E+02	1.640E-01	2.350E+02	2.334E+03
623.90	9.021E+00	2.258E+03	9.966E+00	4.752E+00	-4.422E-01	3.893E+00	-7.557E-01	3.635E+00	2.905E-02	2.165E+02	-1.022E+01	2.335E+02	2.338E+03
623.95	9.053E+00	2.261E+03	9.969E+00	4.712E+00	-4.673E-01	3.839E+00	-7.347E-01	3.667E+00	3.647E-02	2.224E+02	-2.082E+01	2.330E+02	2.340E+03
624.00	9.045E+00	2.264E+03	9.977E+00	4.642E+00	-4.864E-01	3.777E+00	-7.170E-01	3.705E+00	4.028E-02	2.281E+02	-2.855E+01	2.333E+02	2.349E+03
624.05	9.046E+00	2.267E+03	9.986E+00	4.554E+00	-4.977E-01	3.713E+00	-7.021E-01	3.757E+00	4.081E-02	2.327E+02	-3.840E+01	2.339E+02	2.374E+03
624.10	9.064E+00	2.271E+03	9.991E+00	4.456E+00	-5.021E-01	3.652E+00	-6.897E-01	3.823E+00	3.775E-02	2.284E+02	-4.607E+01	2.349E+02	2.397E+03
624.15	9.139E+00	2.276E+03	9.994E+00	4.356E+00	-5.027E-01	3.596E+00	-6.803E-01	3.900E+00	3.041E-02	2.193E+02	-5.127E+01	2.362E+02	2.395E+03
624.20	9.174E+00	2.280E+03	1.000E+01	4.254E+00	-5.016E-01	3.539E+00	-6.728E-01	3.980E+00	2.003E-02	2.085E+02	-5.641E+01	2.380E+02	2.374E+03
624.25	9.111E+00	2.283E+03	1.001E+01	4.150E+00	-4.995E-01	3.475E+00	-6.631E-01	4.054E+00	1.024E-02	1.975E+02	-6.209E+01	2.406E+02	2.361E+03
624.30	9.033E+00	2.287E+03	1.002E+01	4.039E+00	-4.971E-01	3.395E+00	-6.480E-01	4.119E+00	3.859E-03	1.873E+02	-6.817E+01	2.440E+02	2.371E+03
624.35	8.950E+00	2.291E+03	1.002E+01	3.923E+00	-4.973E-01	3.306E+00	-6.282E-01	4.170E+00	6.950E-04	1.806E+02	-7.534E+01	2.486E+02	2.381E+03
624.40	9.071E+00	2.295E+03	1.002E+01	3.806E+00	-5.031E-01	3.216E+00	-6.058E-01	4.210E+00	-8.409E-04	1.783E+02	-8.280E+01	2.541E+02	2.368E+03
624.45	9.125E+00	2.298E+03	1.002E+01	3.700E+00	-5.158E-01	3.135E+00	-5.808E-01	4.243E+00	-1.262E-03	1.785E+02	-8.982E+01	2.594E+02	2.339E+03
624.50	8.969E+00	2.301E+03	1.003E+01	3.616E+00	-5.347E-01	3.071E+00	-5.528E-01	4.275E+00	-1.739E-04	1.783E+02	-9.800E+01	2.649E+02	2.319E+03
624.55	8.916E+00	2.303E+03	1.003E+01	3.563E+00	-5.595E-01	3.031E+00	-5.222E-01	4.311E+00	1.659E-03	1.790E+02	-1.083E+02	2.708E+02	2.323E+03
624.60	9.009E+00	2.305E+03	1.004E+01	3.548E+00	-5.913E-01	3.016E+00	-4.910E-01	4.351E+00	2.079E-03	1.790E+02	-1.182E+02	2.759E+02	2.335E+03
624.65	8.955E+00	2.307E+03	1.004E+01	3.568E+00	-6.294E-01	3.024E+00	-4.609E-01	4.391E+00	-5.834E-05	1.788E+02	-1.280E+02	2.811E+02	2.346E+03
624.70	8.764E+00	2.310E+03	1.004E+01	3.614E+00	-6.701E-01	3.049E+00	-4.323E-01	4.420E+00	-3.980E-03	1.792E+02	-1.374E+02	2.871E+02	2.358E+03
624.75	8.873E+00	2.312E+03	1.004E+01	3.671E+00	-7.080E-01	3.083E+00	-4.038E-01	4.426E+00	-7.848E-03	1.822E+02	-1.465E+02	2.926E+02	2.377E+03
624.80	8.927E+00	2.315E+03	1.005E+01	3.729E+00	-7.394E-01	3.119E+00	-3.751E-01	4.402E+00	-1.115E-02	1.855E+02	-1.545E+02	2.985E+02	2.397E+03
624.85	8.752E+00	2.319E+03	1.005E+01	3.782E+00	-7.629E-01	3.154E+00	-3.472E-01	4.353E+00	-1.528E-02	1.933E+02	-1.619E+02	3.039E+02	2.408E+03
624.90	8.717E+00	2.322E+03	1.006E+01	3.833E+00	-7.782E-01	3.188E+00	-3.207E-01	4.293E+00	-2.205E-02	1.979E+02	-1.676E+02	3.098E+02	2.411E+03
624.95	8.811E+00	2.326E+03	1.006E+01	3.884E+00	-7.868E-01	3.221E+00	-2.963E-01	4.242E+00	-3.401E-02	2.022E+02	-1.722E+02	3.161E+02	2.403E+03
625.00	8.612E+00	2.329E+03	1.007E+01	3.935E+00	-7.903E-01	3.245E+00	-2.731E-01	4.215E+00	-5.190E-02	2.019E+02	-1.747E+02	3.226E+02	2.388E+03
625.05	8.447E+00	2.332E+03	1.007E+01	3.986E+00	-7.902E-01	3.251E+00	-2.504E-01	4.217E+00	-7.492E-02	1.990E+02	-1.765E+02	3.294E+02	2.373E+03
625.10	8.512E+00	2.335E+03	1.008E+01	4.031E+00	-7.879E-01	3.232E+00	-2.272E-01	4.241E+00	-1.004E-01	1.959E+02	-1.784E+02	3.378E+02	2.365E+03
625.15	8.646E+00	2.337E+03	1.008E+01	4.060E+00	-7.855E-01	3.191E+00	-2.042E-01	4.272E+00	-1.260E-01	1.924E+02	-1.800E+02	3.461E+02	2.354E+03
625.20	8.595E+00	2.339E+03	1.008E+01	4.069E+00	-7.848E-01	3.139E+00	-1.826E-01	4.293E+00	-1.492E-01	1.913E+02	-1.817E+02	3.546E+02	2.347E+03
625.25	8.594E+00	2.341E+03	1.008E+01	4.056E+00	-7.861E-01	3.088E+00	-1.627E-01	4.294E+00	-1.673E-01	1.906E+02	-1.831E+02	3.656E+02	2.356E+03
625.30	8.649E+00	2.343E+03	1.009E+01	4.027E+00	-7.903E-01	3.045E+00	-1.443E-01	4.278E+00	-1.806E-01	1.964E+02	-1.868E+02	3.744E+02	2.376E+03
625.35	8.793E+00	2.346E+03	1.009E+01	3.994E+00	-7.982E-01	3.013E+00	-1.271E-01	4.257E+00	-1.908E-01	1.973E+02	-1.886E+02	3.850E+02	2.400E+03
625.40	8.830E+00	2.348E+03	1.009E+01	3.970E+00	-8.103E-01	2.999E+00	-1.111E-01	4.247E+00	-2.006E-01	1.996E+02	-1.907E+02	3.945E+02	2.418E+03
625.45	8.801E+00	2.352E+03	1.010E+01	3.967E+00	-8.251E-01	3.011E+00	-9.520E-02	4.258E+00	-2.109E-01	1.978E+02	-1.924E+02	4.048E+02	2.436E+03
625.50	8.822E+00	2.356E+03	1.011E+01	3.983E+00	-8.406E-01	3.054E+00	-7.917E-02	4.294E+00	-2.227E-01	1.943E+02	-1.952E+02	4.137E+02	2.455E+03
625.55	8.939E+00	2.360E+03	1.012E+01	4.008E+00	-8.544E-01	3.130E+00	-6.327E-02	4.349E+00	-2.367E-01	1.923E+02	-1.981E+02	4.231E+02	2.468E+03
625.60	9.197E+00	2.365E+03	1.012E+01	4.025E+00	-8.642E-01	3.233E+00	-4.789E-02	4.417E+00	-2.542E-01	1.890E+02	-1.993E+02	4.334E+02	2.468E+03
625.65	9.047E+00	2.369E+03	1.013E+01	4.021E+00	-8.677E-01	3.355E+00	-3.331E-02	4.490E+00	-2.763E-01	1.890E+02	-1.998E+02	4.412E+02	2.453E+03
625.70	9.025E+00	2.373E+03	1.014E+01	3.990E+00	-8.633E-01	3.483E+00	-1.867E-02	4.564E+00	-3.021E-01	1.944E+02	-1.987E+02	4.507E+02	2.435E+03
625.75	9.095E+00	2.377E+03	1.014E+01	3.940E+00	-8.509E-01	3.600E+00	-3.385E-03	4.634E+00	-3.312E-01	2.005E+02	-1.959E+02	4.613E+02	2.418E+03
625.80	9.250E+00	2.381E+03	1.015E+01	3.882E+00	-8.320E-01	3.694E+00	1.190E-02	4.696E+00	-3.639E-01	2.026E+02	-1.926E+02	4.692E+02	2.395E+03
625.85	9.602E+00	2.383E+03	1.015E+01	3.823E+00	-8.084E-01	3.756E+00	2.662E-02	4.748E+00	-3.988E-01	2.040E+02	-1.893E+02	4.776E+02	2.377E+03
625.90	9.579E+00	2.386E+03	1.015E+01	3.764E+00	-7.817E-01	3.789E+00	3.994E-02	4.787E+00	-4.344E-01	2.017E+02	-1.846E+02	4.882E+02	2.372E+03
625.95	9.460E+00	2.388E+03	1.015E+01	3.699E+00	-7.533E-01	3.801E+00	5.012E-02	4.809E+00	-4.701E-01	1.959E+02	-1.800E+02	4.961E+02	2.376E+03
626.00	9.399E+00	2.389E+03	1.015E+01	3.621E+00	-7.251E-01	3.806E+00	5.536E-02	4.815E+00	-5.043E-01	1.872E+02	-1.732E+02	5.041E+02	2.386E+03
626.05	9.222E+00	2.392E+03	1.016E+01	3.532E+00	-6.984E-01	3.816E+00	5.465E-02	4.803E+00	-5.348E-01	1.857E+02	-1.660E+02	5.137E+02	2.402E+03
626.10	9.156E+00	2.394E+03	1.016E+01	3.441E+00	-6.729E-01	3.837E+00	4.864E-02	4.770E+00	-5.591E-01	1.823E+02	-1.583E+02	5.223E+02	2.425E+03
626.15	9.056E+00	2.397E+03	1.017E+01	3.355E+00	-6.483E-01	3.869E+00	3.887E-02	4.716E+00	-5.758E-01	1.791E+02	-1.522E+02	5.298E+02	2.454E+03
626.20	9.020E+00	2.400E+03	1.017E+01	3.280E+00	-6.249E-01	3.912E+00	2.742E-02	4.643E+00	-5.846E-01	1.766E+02	-1.457E+02	5.393E+02	2.486E+03
626.25	9.014E+00	2.405E+03	1.018E+01	3.224E+00	-6.038E-01	3.960E+00	1.613E-02	4.557E+00	-5.883E-01	1.738E+02	-1.400E+02	5.480E+02	2.507E+03
626.30	8.862E+00	2.410E+03	1.019E+01	3.193E+00	-5.865E-01	4.008E+00	6.516E-03	4.469E+00	-5.906E-01	1.701E+02	-1.340E+02	5.553E+02	2.506E+03
626.35	8.826E+00	2.415E+03	1.019E+01	3.191E+00	-5.737E-01	4.056E+00	2.006E-04	4.387E+00	-5.945E-01	1.706E+02	-1.268E+02	5.626E+02	2.488E+03
626.40	8.864E+00	2.419E+03	1.020E+01	3.224E+00	-5.649E-01	4.101E+00	-1.693E-03	4.323E+00	-6.014E-01	1.734E+02	-1.193E+02	5.689E+02	2.462E+03
626.45	8.928E+00	2.423E+03	1.021E+01	3.290E+00	-5.584E-01	4.142E+00	1.164E-03	4.281E+00	-6.117E-01	1.756E+02	-1.135E+02	5.732E+02	2.441E+03
626.50	8.922E+00	2.426E+03	1.021E+01	3.379E+00	-5.527E-01	4.179E+00	8.005E-03	4.260E+00	-6.254E-01	1.793E+02	-1.071E+02	5.787E+02	2.432E+03
626.55	8.944E+00	2.429E+03	1.022E+01	3.480E+00	-5.466E-01	4.214E+00	1.634E-02	4.255E+00	-6.438E-01	1.801E+02	-1.004E+02	5.841E+02	2.428E+03
626.60	8.989E+00	2.432E+03	1.022E+01	3.581E+00	-5.389E-01	4.249E+00	2.338E-02	4.260E+00	-6.683E-01	1.822E+02	-9.434E+01	5.880E+02	2.422E+03
626.65	9.006E+00	2.435E+03	1.022E+01	3.669E+00	-5.281E-01	4.284E+00	2.812E-02	4.269E+00	-6.980E-01	1.842E+02	-8.569E+01	5.918E+02	2.427E+03
626.70	8.925E+00	2.437E+03	1.023E+01	3.733E+00	-5.116E-01	4.315E+00	3.050E-02	4.273E+00	-7.302E-01	1.887E+02	-7.576E+01	5.946E+02	2.450E+03
626.75	8.971E+00	2.441E+03	1.023E+01	3.768E+00	-4.873E-01	4.338E+00	3.031E-02	4.271E+00	-7.613E-01	1.929E+02	-6.652E+01	5.957E+02	2.482E+03
626.80	9.026E+00	2.445E+03	1.024E+01	3.778E+00	-4.564E-01	4.349E+00	2.631E-02	4.257E+00	-7.884E-01	1.962E+02	-5.681E+01	5.967E+02	2.506E+03
626.85	9.073E+00	2.449E+03	1.024E+01	3.770E+00	-4.210E-01	4.349E+00	1.708E-02	4.234E+00	-8.094E-01	1.975E+02	-4.617E+01	5.985E+02	2.510E+03
626.90	9.004E+00	2.454E+03	1.025E+01	3.741E+00	-3.821E-01	4.350E+00	1.053E-03	4.209E+00	-8.240E-01	1.924E+02	-3.380E+01	6.011E+02	2.495E+03
626.95	8.973E+00	2.457E+03	1.025E+01	3.683E+00	-3.401E-01	4.360E+00	-2.275E-02	4.192E+00	-8.336E-01	1.862E+02	-2.280E+01	6.034E+02	2.471E+03
627.00	8.915E+00	2.461E+03	1.026E+01	3.591E+00	-2.954E-01	4.386E+00	-5.301E-02	4.189E+00	-8.391E-01	1.797E+02	-1.168E+01	6.050E+02	2.454E+03
627.05	8.898E+00	2.464E+03	1.026E+01	3.464E+00	-2.498E-01	4.422E+00	-8.770E-02	4.194E+00	-8.418E-01	1.730E+02	-2.097E-01	6.053E+02	2.443E+03
627.10	8.828E+00	2.466E+03	1.026E+01	3.315E+00	-2.057E-01	4.456E+00	-1.238E-01	4.198E+00	-8.421E-01	1.669E+02	1.029E+01	6.052E+02	2.431E+03
627.15	8.813E+00	2.468E+03	1.026E+01	3.163E+00	-1.664E-01	4.480E+00	-1.578E-01	4.190E+00	-8.403E-01	1.600E+02	2.011E+01	6.052E+02	2.422E+03
627.20	8.798E+00	2.470E+03	1.026E+01	3.026E+00	-1.345E-01	4.492E+00	-1.874E-01	4.163E+00	-8.367E-01	1.528E+02	3.001E+01	6.054E+02	2.422E+03
627.25	8.815E+00	2.472E+03	1.027E+01	2.919E+00	-1.103E-01	4.497E+00	-2.109E-01	4.119E+00	-8.319E-01	1.463E+02	3.903E+01	6.056E+02	2.442E+03
627.30	8.924E+00	2.474E+03	1.027E+01	2.850E+00	-9.268E-02	4.505E+00	-2.283E-01	4.066E+00	-8.268E-01	1.426E+02	4.615E+01	6.046E+02	2.482E+03
627.35	9.136E+00	2.477E+03	1.028E+01	2.823E+00	-8.112E-02	4.521E+00	-2.412E-01	4.016E+00	-8.237E-01	1.425E+02	5.284E+01	6.022E+02	2.520E+03
627.40	9.165E+00	2.481E+03	1.028E+01	2.843E+00	-7.427E-02	4.545E+00	-2.509E-01	3.985E+00	-8.238E-01	1.440E+02	5.954E+01	5.983E+02	2.538E+03
627.45	9.033E+00	2.485E+03	1.028E+01	2.903E+00	-7.020E-02	4.568E+00	-2.585E-01	3.981E+00	-8.276E-01	1.481E+02	6.554E+01	5.944E+02	2.525E+03
627.50	9.000E+00	2.488E+03	1.029E+01	2.991E+00	-6.619E-02	4.581E+00	-2.638E-01	4.000E+00	-8.335E-01	1.559E+02	7.267E+01	5.904E+02	2.499E+03
627.55	9.071E+00	2.492E+03	1.029E+01	3.095E+00	-5.936E-02	4.580E+00	-2.672E-01	4.024E+00	-8.380E-01	1.661E+02	7.890E+01	5.857E+02	2.480E+03
627.60	9.156E+00	2.494E+03	1.030E+01	3.206E+00	-4.955E-02	4.564E+00	-2.718E-01	4.031E+00	-8.395E-01	1.769E+02	8.484E+01	5.815E+02	2.465E+03
627.65	9.162E+00	2.496E+03	1.030E+01	3.321E+00	-3.802E-02	4.538E+00	-2.812E-01	4.007E+00	-8.379E-01	1.867E+02	9.187E+01	5.747E+02	2.450E+03
627.70	9.122E+00	2.498E+03	1.030E+01	3.435E+00	-2.566E-02	4.513E+00	-2.990E-01	3.955E+00	-8.332E-01	1.960E+02	9.864E+01	5.671E+02	2.431E+03
627.75	9.238E+00	2.499E+03	1.030E+01	3.544E+00	-1.160E-02	4.495E+00	-3.249E-01	3.881E+00	-8.238E-01	2.004E+02	1.056E+02	5.594E+02	2.428E+03
627.80	9.257E+00	2.500E+03	1.030E+01	3.638E+00	4.541E-03	4.489E+00	-3.574E-01	3.798E+00	-8.094E-01	2.007E+02	1.125E+02	5.509E+02	2.445E+03
627.85	9.367E+00	2.501E+03	1.030E+01	3.711E+00	2.146E-02	4.493E+00	-3.956E-01	3.714E+00	-7.910E-01	1.999E+02	1.192E+02	5.431E+02	2.468E+03
627.90	9.529E+00	2.503E+03	1.030E+01	3.763E+00	3.747E-02	4.504E+00	-4.376E-01	3.633E+00	-7.698E-01	1.978E+02	1.266E+02	5.359E+02	2.485E+03
627.95	9.586E+00	2.505E+03	1.030E+01	3.796E+00	5.136E-02	4.519E+00	-4.806E-01	3.555E+00	-7.460E-01	1.959E+02	1.334E+02	5.282E+02	2.496E+03
628.00	9.677E+00	2.507E+03	1.030E+01	3.816E+00	6.226E-02	4.534E+00	-5.220E-01	3.480E+00	-7.198E-01	1.954E+02	1.389E+02	5.214E+02	2.502E+03
628.05	9.647E+00	2.509E+03	1.031E+01	3.826E+00	6.982E-02	4.550E+00	-5.591E-01	3.407E+00	-6.913E-01	1.974E+02	1.420E+02	5.137E+02	2.507E+03
628.10	9.655E+00	2.512E+03	1.031E+01	3.831E+00	7.348E-02	4.570E+00	-5.910E-01	3.338E+00	-6.612E-01	1.993E+02	1.438E+02	5.056E+02	2.507E+03
628.15	9.795E+00	2.514E+03	1.031E+01	3.838E+00	7.249E-02	4.599E+00	-6.181E-01	3.276E+00	-6.312E-01	2.012E+02	1.453E+02	4.979E+02	2.497E+03
628.20	9.919E+00	2.516E+03	1.031E+01	3.854E+00	6.728E-02	4.639E+00	-6.409E-01	3.231E+00	-6.032E-01	2.017E+02	1.468E+02	4.895E+02	2.486E+03
628.25	1.005E+01	2.518E+03	1.032E+01	3.880E+00	5.946E-02	4.684E+00	-6.593E-01	3.211E+00	-5.783E-01	2.004E+02	1.478E+02	4.806E+02	2.483E+03
628.30	1.004E+01	2.519E+03	1.032E+01	3.910E+00	5.076E-02	4.724E+00	-6.740E-01	3.218E+00	-5.578E-01	1.987E+02	1.480E+02	4.713E+02	2.487E+03
628.35	1.010E+01	2.521E+03	1.032E+01	3.934E+00	4.270E-02	4.755E+00	-6.865E-01	3.251E+00	-5.425E-01	1.993E+02	1.479E+02	4.621E+02	2.491E+03
628.40	1.003E+01	2.523E+03	1.033E+01	3.947E+00	3.717E-02	4.778E+00	-6.974E-01	3.302E+00	-5.312E-01	2.010E+02	1.472E+02	4.522E+02	2.498E+03
628.45	1.015E+01	2.525E+03	1.033E+01	3.949E+00	3.493E-02	4.793E+00	-7.080E-01	3.362E+00	-5.220E-01	2.019E+02	1.462E+02	4.423E+02	2.502E+03
628.50	1.012E+01	2.527E+03	1.033E+01	3.944E+00	3.530E-02	4.808E+00	-7.207E-01	3.423E+00	-5.136E-01	2.047E+02	1.453E+02	4.328E+02	2.496E+03
628.55	9.950E+00	2.528E+03	1.033E+01	3.936E+00	3.803E-02	4.827E+00	-7.376E-01	3.474E+00	-5.042E-01	2.044E+02	1.457E+02	4.235E+02	2.487E+03
628.60	9.924E+00	2.530E+03	1.033E+01	3.929E+00	4.311E-02	4.847E+00	-7.594E-01	3.511E+00	-4.922E-01	2.013E+02	1.464E+02	4.135E+02	2.482E+03
628.65	9.839E+00	2.531E+03	1.033E+01	3.923E+00	4.990E-02	4.858E+00	-7.851E-01	3.528E+00	-4.762E-01	1.961E+02	1.474E+02	4.037E+02	2.483E+03
628.70	9.800E+00	2.532E+03	1.033E+01	3.917E+00	5.678E-02	4.851E+00	-8.126E-01	3.523E+00	-4.552E-01	1.933E+02	1.468E+02	3.940E+02	2.490E+03
628.75	9.860E+00	2.533E+03	1.034E+01	3.913E+00	6.111E-02	4.819E+00	-8.394E-01	3.499E+00	-4.287E-01	1.942E+02	1.454E+02	3.864E+02	2.498E+03
628.80	9.740E+00	2.535E+03	1.034E+01	3.919E+00	5.976E-02	4.765E+00	-8.628E-01	3.463E+00	-3.973E-01	1.961E+02	1.426E+02	3.789E+02	2.506E+03
628.85	9.798E+00	2.537E+03	1.034E+01	3.941E+00	5.004E-02	4.692E+00	-8.810E-01	3.414E+00	-3.616E-01	2.025E+02	1.377E+02	3.713E+02	2.510E+03
628.90	9.796E+00	2.538E+03	1.034E+01	3.985E+00	3.135E-02	4.610E+00	-8.929E-01	3.348E+00	-3.219E-01	2.087E+02	1.330E+02	3.654E+02	2.514E+03
628.95	9.735E+00	2.540E+03	1.034E+01	4.051E+00	4.628E-03	4.526E+00	-8.989E-01	3.263E+00	-2.798E-01	2.118E+02	1.260E+02	3.570E+02	2.515E+03
629.00	9.810E+00	2.542E+03	1.034E+01	4.128E+00	-2.846E-02	4.447E+00	-9.004E-01	3.162E+00	-2.372E-01	2.129E+02	1.188E+02	3.487E+02	2.503E+03
629.05	9.969E+00	2.543E+03	1.034E+01	4.206E+00	-6.457E-02	4.372E+00	-8.976E-01	3.058E+00	-1.961E-01	2.149E+02	1.111E+02	3.410E+02	2.488E+03
629.10	9.986E+00	2.544E+03	1.034E+01	4.276E+00	-1.009E-01	4.298E+00	-8.907E-01	2.965E+00	-1.589E-01	2.183E+02	1.018E+02	3.333E+02	2.476E+03
629.15	9.969E+00	2.545E+03	1.035E+01	4.338E+00	-1.365E-01	4.221E+00	-8.808E-01	2.899E+00	-1.286E-01	2.220E+02	9.457E+01	3.270E+02	2.470E+03
629.20	9.904E+00	2.545E+03	1.035E+01	4.396E+00	-1.701E-01	4.137E+00	-8.685E-01	2.871E+00	-1.068E-01	2.245E+02	8.570E+01	3.190E+02	2.479E+03
629.25	9.797E+00	2.546E+03	1.035E+01	4.457E+00	-2.015E-01	4.054E+00	-8.550E-01	2.883E+00	-9.316E-02	2.281E+02	7.837E+01	3.120E+02	2.499E+03
629.30	9.694E+00	2.547E+03	1.035E+01	4.523E+00	-2.301E-01	3.981E+00	-8.409E-01	2.935E+00	-8.583E-02	2.290E+02	7.071E+01	3.050E+02	2.527E+03
629.35	9.702E+00	2.549E+03	1.035E+01	4.594E+00	-2.560E-01	3.929E+00	-8.280E-01	3.022E+00	-8.292E-02	2.273E+02	6.286E+01	2.979E+02	2.548E+03
629.40	9.799E+00	2.551E+03	1.036E+01	4.665E+00	-2.795E-01	3.900E+00	-8.171E-01	3.130E+00	-8.192E-02	2.255E+02	5.584E+01	2.917E+02	2.551E+03
629.45	9.615E+00	2.553E+03	1.036E+01	4.730E+00	-3.009E-01	3.880E+00	-8.075E-01	3.247E+00	-8.031E-02	2.247E+02	4.921E+01	2.865E+02	2.540E+03
629.50	9.608E+00	2.555E+03	1.036E+01	4.784E+00	-3.205E-01	3.855E+00	-7.980E-01	3.364E+00	-7.658E-02	2.261E+02	4.159E+01	2.816E+02	2.523E+03
629.55	9.655E+00	2.557E+03	1.036E+01	4.821E+00	-3.393E-01	3.812E+00	-7.881E-01	3.474E+00	-7.008E-02	2.291E+02	3.356E+01	2.775E+02	2.503E+03
629.60	9.639E+00	2.558E+03	1.036E+01	4.840E+00	-3.585E-01	3.752E+00	-7.780E-01	3.575E+00	-6.091E-02	2.326E+02	2.577E+01	2.745E+02	2.484E+03
629.65	9.624E+00	2.558E+03	1.036E+01	4.844E+00	-3.789E-01	3.685E+00	-7.687E-01	3.666E+00	-4.921E-02	2.356E+02	1.681E+01	2.720E+02	2.471E+03
629.70	9.692E+00	2.558E+03	1.036E+01	4.839E+00	-4.009E-01	3.624E+00	-7.604E-01	3.743E+00	-3.504E-02	2.383E+02	7.344E+00	2.702E+02	2.470E+03
629.75	9.693E+00	2.559E+03	1.036E+01	4.829E+00	-4.241E-01	3.577E+00	-7.531E-01	3.802E+00	-1.867E-02	2.367E+02	-2.445E+00	2.686E+02	2.483E+03
629.80	9.682E+00	2.559E+03	1.036E+01	4.814E+00	-4.487E-01	3.540E+00	-7.465E-01	3.840E+00	-1.085E-03	2.350E+02	-1.281E+01	2.671E+02	2.504E+03
629.85	9.552E+00	2.560E+03	1.036E+01	4.794E+00	-4.744E-01	3.508E+00	-7.397E-01	3.856E+00	1.673E-02	2.294E+02	-2.200E+01	2.660E+02	2.523E+03
629.90	9.494E+00	2.561E+03	1.036E+01	4.766E+00	-5.007E-01	3.474E+00	-7.316E-01	3.850E+00	3.402E-02	2.247E+02	-3.151E+01	2.654E+02	2.531E+03
629.95	9.354E+00	2.562E+03	1.037E+01	4.733E+00	-5.267E-01	3.433E+00	-7.203E-01	3.823E+00	5.093E-02	2.216E+02	-4.092E+01	2.655E+02	2.532E+03
630.00	9.111E+00	2.564E+03	1.037E+01	4.695E+00	-5.512E-01	3.389E+00	-7.048E-01	3.780E+00	6.746E-02	2.191E+02	-5.037E+01	2.665E+02	2.528E+03
