
"These predictions were generated by FAST (v6.10a-jmj, 21-Feb-2007) on 01-Apr-2007 at 16:54:46."
"The aerodynamic calculations were made by AeroDyn (12.60i-pjm, 16-Nov-2006)."

 NREL 5.0 MW Baseline Wind Turbine for Use in Offshore Analysis.

    Time	WindVxi	GenPwr	RotSpeed	OoPDefl1	IPDefl1	OoPDefl2	IPDefl2	OoPDefl3	IPDefl3	RootFxc1	RootFyc1	RootFzc1	RotTorq
   (sec)	(m/sec)	(kW)	(rpm)	(m)	(m)	(m)	(m)	(m)	(m)	(kN)	(kN)	(kN)	(kN·m)
30.00	2.133E+00	1.215E+01	6.921E+00	1.045E+00	-9.260E-02	7.156E-01	3.664E-01	1.105E+00	-4.695E-01	4.942E+01	-6.342E+00	3.746E+02	1.649E+01
30.05	1.879E+00	1.187E+01	6.921E+00	1.065E+00	-7.784E-02	7.151E-01	3.601E-01	1.105E+00	-4.785E-01	5.330E+01	-4.005E-01	3.746E+02	1.608E+01
30.10	1.748E+00	1.161E+01	6.921E+00	1.079E+00	-6.242E-02	7.220E-01	3.524E-01	1.093E+00	-4.861E-01	5.562E+01	5.822E+00	3.745E+02	1.552E+01
30.15	1.855E+00	1.136E+01	6.920E+00	1.088E+00	-4.665E-02	7.375E-01	3.431E-01	1.072E+00	-4.924E-01	5.853E+01	1.194E+01	3.741E+02	1.437E+01
30.20	1.872E+00	1.112E+01	6.920E+00	1.091E+00	-3.056E-02	7.603E-01	3.322E-01	1.044E+00	-4.975E-01	5.963E+01	1.812E+01	3.735E+02	1.373E+01
30.25	1.915E+00	1.089E+01	6.920E+00	1.089E+00	-1.410E-02	7.871E-01	3.200E-01	1.015E+00	-5.017E-01	5.814E+01	2.448E+01	3.727E+02	1.399E+01
30.30	1.846E+00	1.066E+01	6.920E+00	1.082E+00	2.749E-03	8.136E-01	3.067E-01	9.891E-01	-5.053E-01	5.562E+01	3.092E+01	3.716E+02	1.395E+01
30.35	1.756E+00	1.045E+01	6.920E+00	1.066E+00	2.017E-02	8.362E-01	2.927E-01	9.688E-01	-5.085E-01	5.339E+01	3.710E+01	3.702E+02	1.302E+01
30.40	1.737E+00	1.024E+01	6.919E+00	1.042E+00	3.833E-02	8.538E-01	2.782E-01	9.543E-01	-5.112E-01	5.022E+01	4.329E+01	3.687E+02	1.228E+01
30.45	1.831E+00	1.003E+01	6.919E+00	1.009E+00	5.713E-02	8.679E-01	2.634E-01	9.433E-01	-5.132E-01	4.884E+01	4.939E+01	3.670E+02	1.186E+01
30.50	1.847E+00	9.827E+00	6.919E+00	9.676E-01	7.641E-02	8.809E-01	2.484E-01	9.350E-01	-5.145E-01	4.830E+01	5.542E+01	3.652E+02	1.174E+01
30.55	1.731E+00	9.627E+00	6.919E+00	9.219E-01	9.587E-02	8.953E-01	2.329E-01	9.278E-01	-5.153E-01	4.826E+01	6.132E+01	3.633E+02	1.103E+01
30.60	1.650E+00	9.426E+00	6.918E+00	8.761E-01	1.151E-01	9.126E-01	2.172E-01	9.223E-01	-5.158E-01	4.859E+01	6.723E+01	3.611E+02	1.024E+01
30.65	1.780E+00	9.226E+00	6.918E+00	8.344E-01	1.338E-01	9.325E-01	2.013E-01	9.210E-01	-5.163E-01	4.873E+01	7.300E+01	3.587E+02	8.756E+00
30.70	1.772E+00	9.018E+00	6.917E+00	8.000E-01	1.516E-01	9.531E-01	1.854E-01	9.250E-01	-5.172E-01	4.792E+01	7.870E+01	3.562E+02	6.818E+00
30.75	1.744E+00	8.799E+00	6.917E+00	7.747E-01	1.685E-01	9.721E-01	1.698E-01	9.346E-01	-5.185E-01	4.634E+01	8.441E+01	3.533E+02	5.361E+00
30.80	1.813E+00	8.563E+00	6.916E+00	7.580E-01	1.846E-01	9.880E-01	1.544E-01	9.492E-01	-5.203E-01	4.438E+01	9.004E+01	3.502E+02	4.700E+00
30.85	1.774E+00	8.309E+00	6.915E+00	7.486E-01	1.999E-01	1.000E+00	1.395E-01	9.676E-01	-5.223E-01	4.252E+01	9.556E+01	3.469E+02	4.636E+00
30.90	1.870E+00	8.041E+00	6.915E+00	7.443E-01	2.147E-01	1.008E+00	1.247E-01	9.887E-01	-5.243E-01	4.119E+01	1.009E+02	3.435E+02	4.737E+00
30.95	1.960E+00	7.760E+00	6.914E+00	7.436E-01	2.290E-01	1.014E+00	1.101E-01	1.011E+00	-5.261E-01	4.068E+01	1.062E+02	3.399E+02	5.110E+00
31.00	1.919E+00	7.472E+00	6.914E+00	7.458E-01	2.428E-01	1.018E+00	9.528E-02	1.036E+00	-5.272E-01	4.108E+01	1.113E+02	3.360E+02	5.870E+00
31.05	1.895E+00	7.183E+00	6.913E+00	7.510E-01	2.562E-01	1.022E+00	8.011E-02	1.060E+00	-5.274E-01	4.210E+01	1.161E+02	3.321E+02	6.773E+00
31.10	1.861E+00	6.898E+00	6.913E+00	7.599E-01	2.687E-01	1.028E+00	6.431E-02	1.082E+00	-5.265E-01	4.331E+01	1.208E+02	3.280E+02	7.949E+00
31.15	1.899E+00	6.624E+00	6.912E+00	7.727E-01	2.804E-01	1.040E+00	4.764E-02	1.103E+00	-5.244E-01	4.439E+01	1.254E+02	3.236E+02	8.647E+00
31.20	1.861E+00	6.364E+00	6.912E+00	7.886E-01	2.910E-01	1.058E+00	2.995E-02	1.124E+00	-5.213E-01	4.525E+01	1.298E+02	3.191E+02	7.761E+00
31.25	1.874E+00	6.117E+00	6.912E+00	8.059E-01	3.007E-01	1.082E+00	1.134E-02	1.142E+00	-5.170E-01	4.556E+01	1.339E+02	3.146E+02	5.731E+00
31.30	1.777E+00	5.876E+00	6.912E+00	8.221E-01	3.097E-01	1.109E+00	-7.811E-03	1.156E+00	-5.115E-01	4.527E+01	1.380E+02	3.098E+02	4.362E+00
31.35	1.652E+00	5.635E+00	6.912E+00	8.347E-01	3.183E-01	1.134E+00	-2.696E-02	1.165E+00	-5.048E-01	4.464E+01	1.419E+02	3.046E+02	5.294E+00
31.40	1.663E+00	5.397E+00	6.912E+00	8.419E-01	3.268E-01	1.154E+00	-4.581E-02	1.169E+00	-4.969E-01	4.459E+01	1.455E+02	2.998E+02	7.565E+00
31.45	1.697E+00	5.176E+00	6.912E+00	8.434E-01	3.353E-01	1.166E+00	-6.405E-02	1.171E+00	-4.883E-01	4.443E+01	1.488E+02	2.947E+02	1.122E+01
31.50	1.715E+00	4.985E+00	6.912E+00	8.396E-01	3.439E-01	1.171E+00	-8.174E-02	1.171E+00	-4.792E-01	4.404E+01	1.521E+02	2.890E+02	1.440E+01
31.55	1.712E+00	4.839E+00	6.913E+00	8.317E-01	3.525E-01	1.173E+00	-9.920E-02	1.172E+00	-4.698E-01	4.391E+01	1.550E+02	2.837E+02	1.538E+01
31.60	1.748E+00	4.740E+00	6.913E+00	8.214E-01	3.609E-01	1.175E+00	-1.166E-01	1.171E+00	-4.601E-01	4.352E+01	1.577E+02	2.782E+02	1.474E+01
31.65	1.886E+00	4.683E+00	6.914E+00	8.102E-01	3.691E-01	1.180E+00	-1.339E-01	1.168E+00	-4.500E-01	4.243E+01	1.603E+02	2.723E+02	1.300E+01
31.70	1.814E+00	4.657E+00	6.914E+00	7.985E-01	3.768E-01	1.188E+00	-1.513E-01	1.159E+00	-4.392E-01	4.101E+01	1.628E+02	2.667E+02	9.808E+00
31.75	1.968E+00	4.649E+00	6.914E+00	7.868E-01	3.841E-01	1.197E+00	-1.686E-01	1.144E+00	-4.276E-01	3.999E+01	1.651E+02	2.610E+02	6.415E+00
31.80	2.032E+00	4.640E+00	6.914E+00	7.752E-01	3.908E-01	1.204E+00	-1.855E-01	1.121E+00	-4.153E-01	3.934E+01	1.673E+02	2.550E+02	3.421E+00
31.85	1.911E+00	4.618E+00	6.914E+00	7.638E-01	3.970E-01	1.204E+00	-2.019E-01	1.092E+00	-4.021E-01	3.935E+01	1.693E+02	2.491E+02	1.730E+00
31.90	1.950E+00	4.576E+00	6.914E+00	7.522E-01	4.028E-01	1.195E+00	-2.176E-01	1.059E+00	-3.885E-01	4.007E+01	1.710E+02	2.430E+02	1.952E+00
31.95	2.101E+00	4.516E+00	6.914E+00	7.405E-01	4.079E-01	1.175E+00	-2.323E-01	1.027E+00	-3.744E-01	4.061E+01	1.723E+02	2.369E+02	4.316E+00
32.00	1.988E+00	4.449E+00	6.914E+00	7.299E-01	4.124E-01	1.148E+00	-2.463E-01	9.977E-01	-3.600E-01	4.109E+01	1.734E+02	2.309E+02	8.212E+00
32.05	1.919E+00	4.392E+00	6.914E+00	7.213E-01	4.159E-01	1.115E+00	-2.596E-01	9.733E-01	-3.454E-01	4.125E+01	1.740E+02	2.245E+02	1.160E+01
32.10	1.917E+00	4.359E+00	6.914E+00	7.150E-01	4.181E-01	1.083E+00	-2.728E-01	9.526E-01	-3.304E-01	4.124E+01	1.746E+02	2.187E+02	1.137E+01
32.15	1.932E+00	4.350E+00	6.914E+00	7.111E-01	4.191E-01	1.055E+00	-2.859E-01	9.334E-01	-3.149E-01	4.030E+01	1.750E+02	2.123E+02	9.829E+00
32.20	1.897E+00	4.357E+00	6.914E+00	7.091E-01	4.192E-01	1.032E+00	-2.988E-01	9.138E-01	-2.987E-01	3.918E+01	1.751E+02	2.057E+02	7.852E+00
32.25	1.913E+00	4.371E+00	6.914E+00	7.091E-01	4.182E-01	1.013E+00	-3.116E-01	8.935E-01	-2.816E-01	3.883E+01	1.749E+02	1.999E+02	4.107E+00
32.30	2.057E+00	4.374E+00	6.914E+00	7.124E-01	4.162E-01	9.968E-01	-3.242E-01	8.728E-01	-2.640E-01	3.834E+01	1.745E+02	1.935E+02	5.962E-01
32.35	1.962E+00	4.353E+00	6.913E+00	7.205E-01	4.133E-01	9.825E-01	-3.364E-01	8.537E-01	-2.464E-01	3.792E+01	1.738E+02	1.869E+02	-2.731E+00
32.40	1.941E+00	4.293E+00	6.912E+00	7.335E-01	4.094E-01	9.685E-01	-3.484E-01	8.388E-01	-2.290E-01	3.827E+01	1.731E+02	1.809E+02	-5.752E+00
32.45	1.937E+00	4.185E+00	6.912E+00	7.489E-01	4.049E-01	9.542E-01	-3.600E-01	8.299E-01	-2.121E-01	3.916E+01	1.721E+02	1.747E+02	-5.833E+00
32.50	1.943E+00	4.032E+00	6.911E+00	7.645E-01	4.001E-01	9.419E-01	-3.714E-01	8.283E-01	-1.960E-01	4.049E+01	1.707E+02	1.682E+02	-2.193E+00
32.55	1.914E+00	3.852E+00	6.911E+00	7.790E-01	3.951E-01	9.351E-01	-3.829E-01	8.355E-01	-1.807E-01	4.254E+01	1.691E+02	1.622E+02	3.358E+00
32.60	1.760E+00	3.672E+00	6.911E+00	7.919E-01	3.898E-01	9.371E-01	-3.948E-01	8.527E-01	-1.662E-01	4.466E+01	1.674E+02	1.562E+02	8.667E+00
32.65	1.670E+00	3.517E+00	6.911E+00	8.043E-01	3.843E-01	9.503E-01	-4.072E-01	8.786E-01	-1.526E-01	4.597E+01	1.654E+02	1.501E+02	1.292E+01
32.70	1.727E+00	3.405E+00	6.911E+00	8.167E-01	3.785E-01	9.751E-01	-4.199E-01	9.099E-01	-1.393E-01	4.643E+01	1.633E+02	1.441E+02	1.462E+01
32.75	1.682E+00	3.341E+00	6.911E+00	8.286E-01	3.721E-01	1.008E+00	-4.329E-01	9.418E-01	-1.261E-01	4.599E+01	1.612E+02	1.383E+02	1.232E+01
32.80	1.846E+00	3.316E+00	6.912E+00	8.391E-01	3.654E-01	1.041E+00	-4.455E-01	9.682E-01	-1.126E-01	4.467E+01	1.590E+02	1.324E+02	8.423E+00
32.85	1.872E+00	3.310E+00	6.913E+00	8.465E-01	3.586E-01	1.069E+00	-4.572E-01	9.863E-01	-9.806E-02	4.320E+01	1.565E+02	1.266E+02	6.411E+00
32.90	1.846E+00	3.312E+00	6.913E+00	8.500E-01	3.519E-01	1.086E+00	-4.677E-01	9.958E-01	-8.252E-02	4.202E+01	1.539E+02	1.209E+02	6.712E+00
32.95	1.817E+00	3.322E+00	6.914E+00	8.495E-01	3.451E-01	1.094E+00	-4.770E-01	9.983E-01	-6.619E-02	4.145E+01	1.510E+02	1.155E+02	8.709E+00
33.00	1.812E+00	3.346E+00	6.914E+00	8.468E-01	3.379E-01	1.095E+00	-4.857E-01	9.966E-01	-4.952E-02	4.127E+01	1.479E+02	1.100E+02	1.118E+01
33.05	1.905E+00	3.395E+00	6.915E+00	8.440E-01	3.301E-01	1.093E+00	-4.939E-01	9.948E-01	-3.279E-02	4.151E+01	1.445E+02	1.049E+02	1.328E+01
33.10	1.806E+00	3.475E+00	6.915E+00	8.440E-01	3.213E-01	1.089E+00	-5.018E-01	9.941E-01	-1.624E-02	4.188E+01	1.411E+02	1.003E+02	1.480E+01
33.15	1.802E+00	3.592E+00	6.916E+00	8.490E-01	3.116E-01	1.087E+00	-5.094E-01	9.931E-01	1.522E-04	4.156E+01	1.371E+02	9.511E+01	1.625E+01
33.20	1.785E+00	3.746E+00	6.917E+00	8.594E-01	3.006E-01	1.087E+00	-5.162E-01	9.891E-01	1.673E-02	4.124E+01	1.332E+02	9.058E+01	1.604E+01
33.25	1.957E+00	3.936E+00	6.918E+00	8.753E-01	2.885E-01	1.085E+00	-5.221E-01	9.787E-01	3.373E-02	4.064E+01	1.293E+02	8.628E+01	1.446E+01
33.30	1.943E+00	4.150E+00	6.918E+00	8.958E-01	2.754E-01	1.081E+00	-5.266E-01	9.601E-01	5.129E-02	3.971E+01	1.248E+02	8.167E+01	1.281E+01
33.35	1.919E+00	4.379E+00	6.919E+00	9.182E-01	2.614E-01	1.070E+00	-5.294E-01	9.339E-01	6.937E-02	3.920E+01	1.202E+02	7.733E+01	1.065E+01
33.40	1.914E+00	4.610E+00	6.920E+00	9.401E-01	2.466E-01	1.053E+00	-5.307E-01	9.032E-01	8.773E-02	3.936E+01	1.156E+02	7.327E+01	9.765E+00
33.45	1.965E+00	4.838E+00	6.920E+00	9.597E-01	2.314E-01	1.030E+00	-5.306E-01	8.726E-01	1.060E-01	3.971E+01	1.105E+02	6.900E+01	1.160E+01
33.50	2.048E+00	5.068E+00	6.921E+00	9.758E-01	2.159E-01	1.007E+00	-5.297E-01	8.462E-01	1.239E-01	4.076E+01	1.052E+02	6.512E+01	1.389E+01
33.55	2.029E+00	5.308E+00	6.921E+00	9.881E-01	2.000E-01	9.882E-01	-5.287E-01	8.267E-01	1.410E-01	4.215E+01	9.991E+01	6.169E+01	1.455E+01
33.60	2.092E+00	5.559E+00	6.921E+00	9.978E-01	1.838E-01	9.754E-01	-5.278E-01	8.148E-01	1.572E-01	4.343E+01	9.431E+01	5.825E+01	1.411E+01
33.65	2.034E+00	5.818E+00	6.922E+00	1.006E+00	1.676E-01	9.695E-01	-5.270E-01	8.090E-01	1.725E-01	4.433E+01	8.861E+01	5.502E+01	1.361E+01
33.70	1.889E+00	6.082E+00	6.922E+00	1.014E+00	1.512E-01	9.685E-01	-5.261E-01	8.067E-01	1.872E-01	4.485E+01	8.314E+01	5.215E+01	1.321E+01
33.75	1.889E+00	6.344E+00	6.923E+00	1.022E+00	1.349E-01	9.696E-01	-5.250E-01	8.054E-01	2.013E-01	4.455E+01	7.747E+01	4.928E+01	1.334E+01
33.80	1.953E+00	6.605E+00	6.923E+00	1.029E+00	1.187E-01	9.694E-01	-5.234E-01	8.034E-01	2.151E-01	4.367E+01	7.174E+01	4.645E+01	1.300E+01
33.85	2.065E+00	6.861E+00	6.923E+00	1.032E+00	1.030E-01	9.682E-01	-5.213E-01	7.998E-01	2.285E-01	4.273E+01	6.615E+01	4.393E+01	1.249E+01
33.90	1.911E+00	7.109E+00	6.924E+00	1.030E+00	8.803E-02	9.699E-01	-5.188E-01	7.955E-01	2.418E-01	4.182E+01	6.036E+01	4.156E+01	1.309E+01
33.95	1.898E+00	7.350E+00	6.924E+00	1.024E+00	7.368E-02	9.795E-01	-5.166E-01	7.919E-01	2.548E-01	4.130E+01	5.446E+01	3.944E+01	1.387E+01
34.00	2.000E+00	7.586E+00	6.924E+00	1.013E+00	5.965E-02	9.986E-01	-5.147E-01	7.904E-01	2.673E-01	4.113E+01	4.872E+01	3.766E+01	1.369E+01
34.05	2.048E+00	7.815E+00	6.924E+00	1.001E+00	4.574E-02	1.028E+00	-5.134E-01	7.919E-01	2.789E-01	4.094E+01	4.290E+01	3.609E+01	1.308E+01
34.10	2.117E+00	8.035E+00	6.924E+00	9.886E-01	3.171E-02	1.066E+00	-5.126E-01	7.958E-01	2.898E-01	4.074E+01	3.689E+01	3.471E+01	1.211E+01
34.15	2.093E+00	8.240E+00	6.924E+00	9.770E-01	1.738E-02	1.107E+00	-5.116E-01	8.003E-01	3.000E-01	4.049E+01	3.112E+01	3.364E+01	1.128E+01
34.20	1.947E+00	8.428E+00	6.925E+00	9.676E-01	2.827E-03	1.145E+00	-5.098E-01	8.033E-01	3.099E-01	4.023E+01	2.509E+01	3.273E+01	1.230E+01
34.25	1.926E+00	8.600E+00	6.925E+00	9.613E-01	-1.207E-02	1.177E+00	-5.068E-01	8.031E-01	3.197E-01	3.995E+01	1.886E+01	3.203E+01	1.459E+01
34.30	1.878E+00	8.766E+00	6.925E+00	9.590E-01	-2.759E-02	1.198E+00	-5.023E-01	7.991E-01	3.293E-01	3.986E+01	1.260E+01	3.157E+01	1.678E+01
34.35	1.810E+00	8.938E+00	6.926E+00	9.616E-01	-4.390E-02	1.209E+00	-4.961E-01	7.918E-01	3.388E-01	3.963E+01	6.491E+00	3.136E+01	1.887E+01
34.40	1.914E+00	9.121E+00	6.926E+00	9.698E-01	-6.104E-02	1.212E+00	-4.884E-01	7.823E-01	3.481E-01	3.955E+01	2.333E-01	3.136E+01	2.122E+01
34.45	1.783E+00	9.324E+00	6.927E+00	9.830E-01	-7.909E-02	1.208E+00	-4.795E-01	7.724E-01	3.572E-01	3.968E+01	-6.078E+00	3.157E+01	2.245E+01
34.50	1.937E+00	9.551E+00	6.927E+00	1.000E+00	-9.792E-02	1.199E+00	-4.695E-01	7.633E-01	3.660E-01	4.020E+01	-1.260E+01	3.200E+01	2.238E+01
34.55	2.125E+00	9.797E+00	6.928E+00	1.021E+00	-1.173E-01	1.186E+00	-4.584E-01	7.556E-01	3.743E-01	4.100E+01	-1.906E+01	3.270E+01	2.114E+01
34.60	2.133E+00	1.006E+01	6.928E+00	1.045E+00	-1.371E-01	1.168E+00	-4.462E-01	7.489E-01	3.822E-01	4.209E+01	-2.559E+01	3.369E+01	1.866E+01
34.65	2.036E+00	1.031E+01	6.928E+00	1.072E+00	-1.571E-01	1.143E+00	-4.328E-01	7.430E-01	3.894E-01	4.339E+01	-3.212E+01	3.491E+01	1.566E+01
34.70	1.990E+00	1.055E+01	6.929E+00	1.099E+00	-1.770E-01	1.112E+00	-4.182E-01	7.378E-01	3.957E-01	4.465E+01	-3.861E+01	3.633E+01	1.356E+01
34.75	1.864E+00	1.077E+01	6.929E+00	1.124E+00	-1.966E-01	1.074E+00	-4.026E-01	7.338E-01	4.009E-01	4.597E+01	-4.502E+01	3.785E+01	1.308E+01
34.80	1.801E+00	1.096E+01	6.929E+00	1.143E+00	-2.154E-01	1.031E+00	-3.860E-01	7.313E-01	4.050E-01	4.728E+01	-5.121E+01	3.948E+01	1.368E+01
34.85	1.855E+00	1.112E+01	6.929E+00	1.156E+00	-2.334E-01	9.841E-01	-3.688E-01	7.305E-01	4.079E-01	4.860E+01	-5.748E+01	4.136E+01	1.500E+01
34.90	1.867E+00	1.126E+01	6.929E+00	1.160E+00	-2.503E-01	9.380E-01	-3.512E-01	7.314E-01	4.099E-01	4.972E+01	-6.363E+01	4.348E+01	1.679E+01
34.95	1.810E+00	1.140E+01	6.929E+00	1.157E+00	-2.660E-01	8.957E-01	-3.337E-01	7.340E-01	4.110E-01	5.030E+01	-6.962E+01	4.585E+01	1.877E+01
35.00	1.966E+00	1.153E+01	6.929E+00	1.146E+00	-2.806E-01	8.605E-01	-3.165E-01	7.384E-01	4.114E-01	5.008E+01	-7.535E+01	4.848E+01	2.069E+01
35.05	1.878E+00	1.167E+01	6.929E+00	1.131E+00	-2.943E-01	8.349E-01	-2.999E-01	7.444E-01	4.112E-01	4.928E+01	-8.108E+01	5.138E+01	2.164E+01
35.10	1.744E+00	1.182E+01	6.929E+00	1.113E+00	-3.072E-01	8.203E-01	-2.843E-01	7.511E-01	4.103E-01	4.775E+01	-8.646E+01	5.434E+01	2.054E+01
35.15	1.706E+00	1.197E+01	6.929E+00	1.093E+00	-3.195E-01	8.163E-01	-2.695E-01	7.580E-01	4.088E-01	4.577E+01	-9.164E+01	5.748E+01	1.816E+01
35.20	1.803E+00	1.211E+01	6.929E+00	1.070E+00	-3.310E-01	8.206E-01	-2.554E-01	7.663E-01	4.070E-01	4.388E+01	-9.672E+01	6.085E+01	1.571E+01
35.25	1.922E+00	1.223E+01	6.929E+00	1.045E+00	-3.419E-01	8.314E-01	-2.416E-01	7.768E-01	4.048E-01	4.277E+01	-1.018E+02	6.447E+01	1.395E+01
35.30	1.913E+00	1.233E+01	6.929E+00	1.018E+00	-3.524E-01	8.464E-01	-2.281E-01	7.890E-01	4.022E-01	4.239E+01	-1.069E+02	6.841E+01	1.279E+01
35.35	1.936E+00	1.240E+01	6.928E+00	9.930E-01	-3.627E-01	8.649E-01	-2.148E-01	8.005E-01	3.992E-01	4.242E+01	-1.117E+02	7.256E+01	1.212E+01
35.40	1.889E+00	1.243E+01	6.928E+00	9.720E-01	-3.731E-01	8.877E-01	-2.016E-01	8.101E-01	3.958E-01	4.268E+01	-1.165E+02	7.679E+01	1.302E+01
35.45	1.988E+00	1.244E+01	6.928E+00	9.581E-01	-3.838E-01	9.162E-01	-1.887E-01	8.171E-01	3.921E-01	4.275E+01	-1.211E+02	8.115E+01	1.596E+01
35.50	2.133E+00	1.244E+01	6.928E+00	9.528E-01	-3.950E-01	9.508E-01	-1.759E-01	8.216E-01	3.878E-01	4.261E+01	-1.256E+02	8.555E+01	1.964E+01
35.55	2.020E+00	1.244E+01	6.928E+00	9.563E-01	-4.066E-01	9.908E-01	-1.632E-01	8.241E-01	3.830E-01	4.224E+01	-1.299E+02	9.005E+01	2.242E+01
35.60	1.897E+00	1.246E+01	6.928E+00	9.682E-01	-4.186E-01	1.034E+00	-1.505E-01	8.256E-01	3.777E-01	4.120E+01	-1.339E+02	9.493E+01	2.365E+01
35.65	2.012E+00	1.250E+01	6.928E+00	9.867E-01	-4.308E-01	1.078E+00	-1.373E-01	8.266E-01	3.718E-01	4.086E+01	-1.378E+02	9.986E+01	2.284E+01
35.70	2.012E+00	1.256E+01	6.929E+00	1.008E+00	-4.428E-01	1.116E+00	-1.233E-01	8.269E-01	3.652E-01	4.098E+01	-1.414E+02	1.050E+02	2.133E+01
35.75	2.074E+00	1.263E+01	6.929E+00	1.027E+00	-4.541E-01	1.144E+00	-1.084E-01	8.263E-01	3.581E-01	4.175E+01	-1.450E+02	1.103E+02	2.087E+01
35.80	2.044E+00	1.271E+01	6.930E+00	1.040E+00	-4.645E-01	1.161E+00	-9.254E-02	8.245E-01	3.505E-01	4.292E+01	-1.486E+02	1.156E+02	2.201E+01
35.85	1.995E+00	1.279E+01	6.930E+00	1.047E+00	-4.740E-01	1.166E+00	-7.577E-02	8.215E-01	3.425E-01	4.385E+01	-1.520E+02	1.209E+02	2.429E+01
35.90	1.900E+00	1.289E+01	6.931E+00	1.049E+00	-4.827E-01	1.162E+00	-5.850E-02	8.176E-01	3.342E-01	4.467E+01	-1.551E+02	1.263E+02	2.647E+01
35.95	1.906E+00	1.302E+01	6.932E+00	1.049E+00	-4.908E-01	1.154E+00	-4.101E-02	8.133E-01	3.257E-01	4.559E+01	-1.583E+02	1.319E+02	2.856E+01
36.00	2.067E+00	1.318E+01	6.932E+00	1.050E+00	-4.985E-01	1.144E+00	-2.354E-02	8.092E-01	3.169E-01	4.509E+01	-1.610E+02	1.377E+02	2.947E+01
36.05	1.921E+00	1.338E+01	6.933E+00	1.052E+00	-5.058E-01	1.131E+00	-6.200E-03	8.057E-01	3.076E-01	4.326E+01	-1.632E+02	1.434E+02	2.814E+01
36.10	1.969E+00	1.360E+01	6.933E+00	1.054E+00	-5.124E-01	1.114E+00	1.107E-02	8.039E-01	2.976E-01	4.169E+01	-1.653E+02	1.491E+02	2.608E+01
36.15	2.074E+00	1.383E+01	6.934E+00	1.053E+00	-5.180E-01	1.089E+00	2.853E-02	8.060E-01	2.869E-01	3.909E+01	-1.670E+02	1.551E+02	2.403E+01
36.20	2.005E+00	1.406E+01	6.934E+00	1.046E+00	-5.222E-01	1.056E+00	4.642E-02	8.151E-01	2.751E-01	3.788E+01	-1.688E+02	1.609E+02	2.274E+01
36.25	2.122E+00	1.429E+01	6.934E+00	1.035E+00	-5.249E-01	1.016E+00	6.481E-02	8.330E-01	2.620E-01	3.791E+01	-1.703E+02	1.669E+02	2.186E+01
36.30	2.132E+00	1.450E+01	6.935E+00	1.020E+00	-5.265E-01	9.713E-01	8.361E-02	8.601E-01	2.475E-01	3.949E+01	-1.719E+02	1.730E+02	2.090E+01
36.35	2.133E+00	1.470E+01	6.935E+00	1.002E+00	-5.272E-01	9.262E-01	1.026E-01	8.948E-01	2.316E-01	4.051E+01	-1.729E+02	1.793E+02	2.042E+01
36.40	2.230E+00	1.487E+01	6.935E+00	9.853E-01	-5.273E-01	8.851E-01	1.216E-01	9.338E-01	2.146E-01	4.224E+01	-1.739E+02	1.853E+02	2.111E+01
36.45	2.133E+00	1.503E+01	6.935E+00	9.706E-01	-5.273E-01	8.506E-01	1.403E-01	9.729E-01	1.968E-01	4.258E+01	-1.746E+02	1.916E+02	2.268E+01
36.50	2.210E+00	1.519E+01	6.935E+00	9.605E-01	-5.272E-01	8.242E-01	1.585E-01	1.008E+00	1.785E-01	4.224E+01	-1.750E+02	1.976E+02	2.393E+01
36.55	2.258E+00	1.534E+01	6.935E+00	9.569E-01	-5.272E-01	8.060E-01	1.761E-01	1.037E+00	1.603E-01	4.072E+01	-1.750E+02	2.037E+02	2.437E+01
36.60	2.305E+00	1.548E+01	6.935E+00	9.589E-01	-5.271E-01	7.956E-01	1.929E-01	1.059E+00	1.421E-01	3.840E+01	-1.748E+02	2.098E+02	2.351E+01
36.65	2.260E+00	1.562E+01	6.935E+00	9.642E-01	-5.268E-01	7.938E-01	2.089E-01	1.077E+00	1.242E-01	3.636E+01	-1.743E+02	2.157E+02	2.196E+01
36.70	2.108E+00	1.574E+01	6.935E+00	9.719E-01	-5.259E-01	7.993E-01	2.240E-01	1.091E+00	1.066E-01	3.524E+01	-1.737E+02	2.219E+02	2.049E+01
36.75	1.950E+00	1.585E+01	6.934E+00	9.808E-01	-5.245E-01	8.110E-01	2.378E-01	1.103E+00	8.910E-02	3.509E+01	-1.728E+02	2.280E+02	1.906E+01
36.80	1.892E+00	1.592E+01	6.934E+00	9.895E-01	-5.224E-01	8.274E-01	2.502E-01	1.112E+00	7.198E-02	3.635E+01	-1.718E+02	2.341E+02	1.823E+01
36.85	2.049E+00	1.597E+01	6.934E+00	9.990E-01	-5.198E-01	8.470E-01	2.613E-01	1.116E+00	5.557E-02	3.909E+01	-1.708E+02	2.402E+02	1.869E+01
36.90	2.129E+00	1.600E+01	6.934E+00	1.011E+00	-5.167E-01	8.683E-01	2.713E-01	1.112E+00	4.023E-02	4.201E+01	-1.696E+02	2.463E+02	2.028E+01
36.95	2.066E+00	1.600E+01	6.934E+00	1.027E+00	-5.134E-01	8.894E-01	2.803E-01	1.097E+00	2.624E-02	4.431E+01	-1.682E+02	2.525E+02	2.252E+01
37.00	1.977E+00	1.601E+01	6.933E+00	1.049E+00	-5.101E-01	9.087E-01	2.885E-01	1.072E+00	1.360E-02	4.616E+01	-1.664E+02	2.583E+02	2.411E+01
37.05	1.985E+00	1.601E+01	6.933E+00	1.074E+00	-5.067E-01	9.253E-01	2.962E-01	1.036E+00	2.130E-03	4.674E+01	-1.643E+02	2.640E+02	2.507E+01
37.10	1.962E+00	1.602E+01	6.934E+00	1.098E+00	-5.029E-01	9.382E-01	3.034E-01	9.941E-01	-8.564E-03	4.724E+01	-1.619E+02	2.697E+02	2.577E+01
37.15	2.078E+00	1.604E+01	6.934E+00	1.117E+00	-4.984E-01	9.464E-01	3.104E-01	9.523E-01	-1.916E-02	4.755E+01	-1.593E+02	2.752E+02	2.566E+01
37.20	2.000E+00	1.606E+01	6.934E+00	1.127E+00	-4.926E-01	9.490E-01	3.175E-01	9.166E-01	-3.036E-02	4.828E+01	-1.566E+02	2.806E+02	2.447E+01
37.25	1.972E+00	1.609E+01	6.933E+00	1.127E+00	-4.854E-01	9.449E-01	3.249E-01	8.919E-01	-4.277E-02	4.917E+01	-1.537E+02	2.862E+02	2.226E+01
37.30	2.166E+00	1.611E+01	6.933E+00	1.119E+00	-4.770E-01	9.339E-01	3.329E-01	8.809E-01	-5.685E-02	4.991E+01	-1.506E+02	2.917E+02	1.924E+01
37.35	2.219E+00	1.611E+01	6.932E+00	1.104E+00	-4.672E-01	9.164E-01	3.417E-01	8.825E-01	-7.280E-02	5.010E+01	-1.474E+02	2.970E+02	1.606E+01
37.40	2.216E+00	1.607E+01	6.932E+00	1.085E+00	-4.566E-01	8.932E-01	3.512E-01	8.925E-01	-9.040E-02	4.979E+01	-1.439E+02	3.022E+02	1.391E+01
37.45	2.158E+00	1.600E+01	6.931E+00	1.061E+00	-4.451E-01	8.664E-01	3.612E-01	9.067E-01	-1.093E-01	4.964E+01	-1.402E+02	3.071E+02	1.331E+01
37.50	2.317E+00	1.588E+01	6.930E+00	1.036E+00	-4.328E-01	8.384E-01	3.714E-01	9.219E-01	-1.291E-01	4.824E+01	-1.362E+02	3.118E+02	1.389E+01
37.55	2.378E+00	1.573E+01	6.930E+00	1.009E+00	-4.198E-01	8.120E-01	3.814E-01	9.365E-01	-1.493E-01	4.692E+01	-1.320E+02	3.163E+02	1.491E+01
37.60	2.354E+00	1.556E+01	6.929E+00	9.825E-01	-4.062E-01	7.895E-01	3.907E-01	9.510E-01	-1.697E-01	4.480E+01	-1.275E+02	3.209E+02	1.566E+01
37.65	2.335E+00	1.536E+01	6.928E+00	9.552E-01	-3.917E-01	7.715E-01	3.990E-01	9.677E-01	-1.900E-01	4.298E+01	-1.228E+02	3.252E+02	1.538E+01
37.70	2.241E+00	1.515E+01	6.927E+00	9.275E-01	-3.767E-01	7.578E-01	4.060E-01	9.882E-01	-2.101E-01	4.210E+01	-1.180E+02	3.294E+02	1.423E+01
37.75	2.252E+00	1.491E+01	6.926E+00	8.997E-01	-3.610E-01	7.469E-01	4.115E-01	1.013E+00	-2.300E-01	4.177E+01	-1.130E+02	3.336E+02	1.261E+01
37.80	2.358E+00	1.465E+01	6.925E+00	8.731E-01	-3.451E-01	7.369E-01	4.156E-01	1.041E+00	-2.494E-01	4.215E+01	-1.080E+02	3.375E+02	1.065E+01
37.85	2.224E+00	1.437E+01	6.924E+00	8.495E-01	-3.290E-01	7.262E-01	4.183E-01	1.070E+00	-2.680E-01	4.258E+01	-1.029E+02	3.414E+02	8.532E+00
37.90	2.419E+00	1.404E+01	6.923E+00	8.316E-01	-3.132E-01	7.145E-01	4.198E-01	1.094E+00	-2.853E-01	4.353E+01	-9.764E+01	3.450E+02	7.121E+00
37.95	2.415E+00	1.369E+01	6.922E+00	8.228E-01	-2.977E-01	7.028E-01	4.204E-01	1.110E+00	-3.010E-01	4.452E+01	-9.229E+01	3.485E+02	7.260E+00
38.00	2.147E+00	1.330E+01	6.921E+00	8.255E-01	-2.830E-01	6.932E-01	4.200E-01	1.116E+00	-3.149E-01	4.512E+01	-8.685E+01	3.517E+02	8.330E+00
38.05	2.227E+00	1.289E+01	6.920E+00	8.400E-01	-2.692E-01	6.877E-01	4.187E-01	1.113E+00	-3.274E-01	4.565E+01	-8.135E+01	3.546E+02	9.564E+00
38.10	2.297E+00	1.247E+01	6.919E+00	8.649E-01	-2.562E-01	6.885E-01	4.164E-01	1.104E+00	-3.389E-01	4.628E+01	-7.562E+01	3.574E+02	1.053E+01
38.15	2.279E+00	1.204E+01	6.918E+00	8.977E-01	-2.439E-01	6.968E-01	4.131E-01	1.093E+00	-3.500E-01	4.718E+01	-6.982E+01	3.598E+02	1.057E+01
38.20	2.343E+00	1.161E+01	6.917E+00	9.364E-01	-2.322E-01	7.119E-01	4.090E-01	1.081E+00	-3.607E-01	4.829E+01	-6.400E+01	3.622E+02	9.870E+00
38.25	2.441E+00	1.119E+01	6.916E+00	9.785E-01	-2.206E-01	7.312E-01	4.043E-01	1.071E+00	-3.715E-01	5.010E+01	-5.810E+01	3.644E+02	8.717E+00
38.30	2.285E+00	1.076E+01	6.916E+00	1.022E+00	-2.090E-01	7.522E-01	3.995E-01	1.064E+00	-3.825E-01	5.248E+01	-5.223E+01	3.665E+02	7.730E+00
38.35	2.329E+00	1.033E+01	6.915E+00	1.065E+00	-1.973E-01	7.734E-01	3.947E-01	1.060E+00	-3.938E-01	5.491E+01	-4.638E+01	3.683E+02	7.602E+00
38.40	2.407E+00	9.893E+00	6.915E+00	1.108E+00	-1.853E-01	7.939E-01	3.900E-01	1.061E+00	-4.055E-01	5.736E+01	-4.045E+01	3.699E+02	8.772E+00
38.45	2.443E+00	9.466E+00	6.914E+00	1.151E+00	-1.732E-01	8.138E-01	3.850E-01	1.065E+00	-4.173E-01	5.921E+01	-3.437E+01	3.710E+02	1.060E+01
38.50	2.550E+00	9.056E+00	6.914E+00	1.193E+00	-1.610E-01	8.328E-01	3.796E-01	1.068E+00	-4.291E-01	6.013E+01	-2.831E+01	3.719E+02	1.208E+01
38.55	2.580E+00	8.671E+00	6.914E+00	1.230E+00	-1.484E-01	8.513E-01	3.734E-01	1.069E+00	-4.405E-01	6.041E+01	-2.213E+01	3.726E+02	1.343E+01
38.60	2.570E+00	8.317E+00	6.914E+00	1.261E+00	-1.350E-01	8.694E-01	3.665E-01	1.067E+00	-4.511E-01	6.048E+01	-1.583E+01	3.732E+02	1.535E+01
38.65	2.507E+00	8.002E+00	6.915E+00	1.280E+00	-1.203E-01	8.867E-01	3.588E-01	1.063E+00	-4.607E-01	6.084E+01	-9.458E+00	3.735E+02	1.786E+01
38.70	2.508E+00	7.738E+00	6.915E+00	1.287E+00	-1.040E-01	9.026E-01	3.503E-01	1.059E+00	-4.695E-01	6.156E+01	-3.183E+00	3.737E+02	1.995E+01
38.75	2.439E+00	7.530E+00	6.916E+00	1.280E+00	-8.634E-02	9.165E-01	3.408E-01	1.060E+00	-4.778E-01	6.221E+01	3.153E+00	3.736E+02	2.029E+01
38.80	2.559E+00	7.378E+00	6.916E+00	1.262E+00	-6.755E-02	9.270E-01	3.304E-01	1.066E+00	-4.858E-01	6.296E+01	9.601E+00	3.734E+02	1.854E+01
38.85	2.551E+00	7.273E+00	6.917E+00	1.233E+00	-4.792E-02	9.325E-01	3.193E-01	1.075E+00	-4.935E-01	6.318E+01	1.599E+01	3.730E+02	1.587E+01
38.90	2.490E+00	7.199E+00	6.918E+00	1.198E+00	-2.777E-02	9.315E-01	3.078E-01	1.085E+00	-5.005E-01	6.256E+01	2.239E+01	3.725E+02	1.417E+01
38.95	2.527E+00	7.148E+00	6.918E+00	1.160E+00	-7.408E-03	9.238E-01	2.963E-01	1.092E+00	-5.067E-01	6.082E+01	2.884E+01	3.718E+02	1.350E+01
39.00	2.636E+00	7.114E+00	6.918E+00	1.120E+00	1.292E-02	9.108E-01	2.848E-01	1.094E+00	-5.119E-01	5.802E+01	3.518E+01	3.707E+02	1.292E+01
39.05	2.565E+00	7.093E+00	6.918E+00	1.081E+00	3.298E-02	8.950E-01	2.734E-01	1.089E+00	-5.161E-01	5.478E+01	4.153E+01	3.693E+02	1.210E+01
39.10	2.745E+00	7.081E+00	6.919E+00	1.041E+00	5.271E-02	8.806E-01	2.618E-01	1.076E+00	-5.193E-01	5.163E+01	4.780E+01	3.677E+02	1.181E+01
39.15	2.801E+00	7.076E+00	6.919E+00	1.002E+00	7.206E-02	8.715E-01	2.499E-01	1.058E+00	-5.216E-01	4.880E+01	5.396E+01	3.658E+02	1.211E+01
39.20	2.722E+00	7.079E+00	6.919E+00	9.633E-01	9.097E-02	8.693E-01	2.374E-01	1.039E+00	-5.234E-01	4.679E+01	6.004E+01	3.638E+02	1.171E+01
39.25	2.670E+00	7.087E+00	6.919E+00	9.254E-01	1.094E-01	8.736E-01	2.243E-01	1.022E+00	-5.251E-01	4.572E+01	6.608E+01	3.618E+02	1.014E+01
39.30	2.684E+00	7.093E+00	6.918E+00	8.892E-01	1.275E-01	8.819E-01	2.107E-01	1.011E+00	-5.268E-01	4.536E+01	7.201E+01	3.597E+02	7.857E+00
39.35	2.735E+00	7.088E+00	6.918E+00	8.566E-01	1.453E-01	8.909E-01	1.970E-01	1.007E+00	-5.286E-01	4.581E+01	7.771E+01	3.574E+02	5.538E+00
39.40	2.745E+00	7.061E+00	6.918E+00	8.298E-01	1.624E-01	8.983E-01	1.832E-01	1.008E+00	-5.304E-01	4.651E+01	8.321E+01	3.547E+02	4.162E+00
39.45	2.962E+00	7.010E+00	6.917E+00	8.107E-01	1.788E-01	9.037E-01	1.695E-01	1.012E+00	-5.318E-01	4.694E+01	8.860E+01	3.517E+02	4.159E+00
39.50	2.972E+00	6.936E+00	6.917E+00	8.003E-01	1.940E-01	9.082E-01	1.553E-01	1.016E+00	-5.326E-01	4.688E+01	9.387E+01	3.484E+02	4.866E+00
39.55	2.962E+00	6.842E+00	6.917E+00	7.982E-01	2.081E-01	9.133E-01	1.406E-01	1.018E+00	-5.324E-01	4.629E+01	9.907E+01	3.450E+02	5.946E+00
39.60	3.213E+00	6.737E+00	6.916E+00	8.035E-01	2.210E-01	9.201E-01	1.252E-01	1.019E+00	-5.312E-01	4.519E+01	1.043E+02	3.413E+02	7.267E+00
39.65	3.087E+00	6.626E+00	6.916E+00	8.135E-01	2.332E-01	9.286E-01	1.090E-01	1.020E+00	-5.290E-01	4.407E+01	1.094E+02	3.376E+02	8.369E+00
39.70	3.272E+00	6.516E+00	6.916E+00	8.256E-01	2.448E-01	9.379E-01	9.223E-02	1.025E+00	-5.258E-01	4.346E+01	1.144E+02	3.337E+02	9.031E+00
39.75	3.351E+00	6.412E+00	6.916E+00	8.372E-01	2.563E-01	9.464E-01	7.505E-02	1.036E+00	-5.223E-01	4.358E+01	1.192E+02	3.296E+02	9.225E+00
39.80	3.210E+00	6.313E+00	6.915E+00	8.465E-01	2.677E-01	9.525E-01	5.762E-02	1.054E+00	-5.185E-01	4.450E+01	1.238E+02	3.253E+02	8.507E+00
39.85	3.104E+00	6.218E+00	6.915E+00	8.530E-01	2.789E-01	9.548E-01	4.023E-02	1.075E+00	-5.146E-01	4.609E+01	1.281E+02	3.210E+02	7.265E+00
39.90	3.095E+00	6.123E+00	6.915E+00	8.569E-01	2.899E-01	9.529E-01	2.322E-02	1.096E+00	-5.104E-01	4.783E+01	1.323E+02	3.164E+02	6.401E+00
39.95	3.130E+00	6.022E+00	6.915E+00	8.594E-01	3.005E-01	9.475E-01	6.792E-03	1.114E+00	-5.057E-01	4.941E+01	1.362E+02	3.117E+02	6.073E+00
40.00	3.029E+00	5.917E+00	6.915E+00	8.616E-01	3.106E-01	9.399E-01	-9.019E-03	1.128E+00	-5.003E-01	5.048E+01	1.400E+02	3.070E+02	5.981E+00
40.05	2.943E+00	5.806E+00	6.914E+00	8.641E-01	3.200E-01	9.317E-01	-2.430E-02	1.134E+00	-4.943E-01	5.048E+01	1.437E+02	3.018E+02	6.169E+00
40.10	3.020E+00	5.693E+00	6.914E+00	8.666E-01	3.288E-01	9.249E-01	-3.935E-02	1.135E+00	-4.875E-01	4.970E+01	1.472E+02	2.966E+02	6.427E+00
40.15	2.961E+00	5.579E+00	6.914E+00	8.678E-01	3.372E-01	9.214E-01	-5.449E-02	1.132E+00	-4.802E-01	4.845E+01	1.504E+02	2.911E+02	7.107E+00
40.20	2.923E+00	5.468E+00	6.914E+00	8.662E-01	3.451E-01	9.224E-01	-7.001E-02	1.129E+00	-4.724E-01	4.714E+01	1.535E+02	2.857E+02	7.580E+00
40.25	2.990E+00	5.363E+00	6.914E+00	8.610E-01	3.527E-01	9.286E-01	-8.609E-02	1.126E+00	-4.643E-01	4.612E+01	1.564E+02	2.802E+02	7.424E+00
40.30	2.967E+00	5.263E+00	6.914E+00	8.520E-01	3.602E-01	9.395E-01	-1.027E-01	1.123E+00	-4.555E-01	4.570E+01	1.591E+02	2.746E+02	6.559E+00
40.35	2.943E+00	5.165E+00	6.913E+00	8.399E-01	3.677E-01	9.540E-01	-1.199E-01	1.120E+00	-4.460E-01	4.595E+01	1.616E+02	2.690E+02	5.523E+00
40.40	2.921E+00	5.065E+00	6.913E+00	8.263E-01	3.750E-01	9.704E-01	-1.373E-01	1.116E+00	-4.356E-01	4.675E+01	1.639E+02	2.632E+02	4.955E+00
40.45	3.075E+00	4.960E+00	6.913E+00	8.139E-01	3.821E-01	9.872E-01	-1.550E-01	1.109E+00	-4.242E-01	4.767E+01	1.659E+02	2.574E+02	4.629E+00
40.50	2.897E+00	4.852E+00	6.913E+00	8.051E-01	3.884E-01	1.003E+00	-1.729E-01	1.098E+00	-4.117E-01	4.841E+01	1.678E+02	2.515E+02	4.329E+00
40.55	2.988E+00	4.739E+00	6.913E+00	8.016E-01	3.938E-01	1.016E+00	-1.910E-01	1.083E+00	-3.984E-01	4.827E+01	1.695E+02	2.454E+02	4.498E+00
40.60	3.166E+00	4.622E+00	6.912E+00	8.025E-01	3.983E-01	1.027E+00	-2.091E-01	1.065E+00	-3.842E-01	4.740E+01	1.710E+02	2.394E+02	4.636E+00
40.65	3.006E+00	4.504E+00	6.912E+00	8.056E-01	4.019E-01	1.039E+00	-2.274E-01	1.046E+00	-3.692E-01	4.620E+01	1.724E+02	2.333E+02	4.502E+00
40.70	2.849E+00	4.385E+00	6.912E+00	8.082E-01	4.049E-01	1.054E+00	-2.457E-01	1.024E+00	-3.535E-01	4.493E+01	1.734E+02	2.271E+02	4.156E+00
40.75	2.930E+00	4.263E+00	6.912E+00	8.075E-01	4.074E-01	1.072E+00	-2.639E-01	1.001E+00	-3.373E-01	4.397E+01	1.743E+02	2.209E+02	3.643E+00
40.80	3.050E+00	4.138E+00	6.911E+00	8.024E-01	4.095E-01	1.091E+00	-2.820E-01	9.781E-01	-3.206E-01	4.357E+01	1.748E+02	2.147E+02	3.098E+00
40.85	3.043E+00	4.010E+00	6.911E+00	7.930E-01	4.112E-01	1.109E+00	-2.994E-01	9.579E-01	-3.040E-01	4.366E+01	1.751E+02	2.085E+02	2.992E+00
40.90	2.969E+00	3.878E+00	6.911E+00	7.806E-01	4.123E-01	1.122E+00	-3.160E-01	9.428E-01	-2.876E-01	4.407E+01	1.752E+02	2.023E+02	3.490E+00
40.95	2.955E+00	3.745E+00	6.911E+00	7.672E-01	4.130E-01	1.128E+00	-3.315E-01	9.355E-01	-2.718E-01	4.461E+01	1.750E+02	1.961E+02	4.207E+00
41.00	3.068E+00	3.615E+00	6.911E+00	7.549E-01	4.129E-01	1.127E+00	-3.456E-01	9.376E-01	-2.568E-01	4.493E+01	1.746E+02	1.899E+02	4.714E+00
41.05	3.102E+00	3.491E+00	6.911E+00	7.455E-01	4.122E-01	1.119E+00	-3.586E-01	9.487E-01	-2.425E-01	4.466E+01	1.739E+02	1.836E+02	4.977E+00
41.10	3.077E+00	3.374E+00	6.910E+00	7.396E-01	4.106E-01	1.108E+00	-3.704E-01	9.665E-01	-2.288E-01	4.390E+01	1.729E+02	1.773E+02	4.767E+00
41.15	3.012E+00	3.265E+00	6.910E+00	7.366E-01	4.081E-01	1.096E+00	-3.815E-01	9.887E-01	-2.156E-01	4.305E+01	1.718E+02	1.711E+02	4.306E+00
41.20	3.168E+00	3.162E+00	6.910E+00	7.365E-01	4.047E-01	1.082E+00	-3.918E-01	1.014E+00	-2.027E-01	4.209E+01	1.704E+02	1.647E+02	4.432E+00
41.25	3.086E+00	3.066E+00	6.910E+00	7.394E-01	4.005E-01	1.068E+00	-4.015E-01	1.042E+00	-1.901E-01	4.157E+01	1.690E+02	1.587E+02	4.865E+00
41.30	3.006E+00	2.978E+00	6.911E+00	7.458E-01	3.955E-01	1.053E+00	-4.107E-01	1.072E+00	-1.776E-01	4.143E+01	1.674E+02	1.527E+02	5.517E+00
41.35	3.018E+00	2.901E+00	6.911E+00	7.556E-01	3.898E-01	1.037E+00	-4.195E-01	1.104E+00	-1.651E-01	4.169E+01	1.654E+02	1.466E+02	6.164E+00
41.40	3.063E+00	2.837E+00	6.911E+00	7.683E-01	3.835E-01	1.020E+00	-4.279E-01	1.137E+00	-1.525E-01	4.257E+01	1.632E+02	1.407E+02	6.578E+00
41.45	3.043E+00	2.789E+00	6.911E+00	7.840E-01	3.764E-01	1.003E+00	-4.360E-01	1.170E+00	-1.395E-01	4.381E+01	1.608E+02	1.351E+02	7.252E+00
41.50	3.018E+00	2.757E+00	6.912E+00	8.028E-01	3.686E-01	9.874E-01	-4.440E-01	1.199E+00	-1.258E-01	4.505E+01	1.580E+02	1.293E+02	8.770E+00
41.55	2.953E+00	2.748E+00	6.912E+00	8.247E-01	3.598E-01	9.765E-01	-4.521E-01	1.220E+00	-1.113E-01	4.637E+01	1.551E+02	1.237E+02	1.052E+01
41.60	2.894E+00	2.768E+00	6.913E+00	8.497E-01	3.500E-01	9.720E-01	-4.603E-01	1.232E+00	-9.567E-02	4.760E+01	1.521E+02	1.183E+02	1.198E+01
41.65	2.958E+00	2.821E+00	6.914E+00	8.774E-01	3.392E-01	9.736E-01	-4.688E-01	1.232E+00	-7.885E-02	4.852E+01	1.489E+02	1.129E+02	1.300E+01
41.70	2.939E+00	2.908E+00	6.915E+00	9.063E-01	3.276E-01	9.807E-01	-4.773E-01	1.223E+00	-6.084E-02	4.909E+01	1.455E+02	1.075E+02	1.401E+01
41.75	2.935E+00	3.032E+00	6.915E+00	9.343E-01	3.155E-01	9.945E-01	-4.860E-01	1.204E+00	-4.176E-02	4.952E+01	1.418E+02	1.023E+02	1.511E+01
41.80	2.992E+00	3.194E+00	6.916E+00	9.591E-01	3.031E-01	1.015E+00	-4.947E-01	1.179E+00	-2.199E-02	4.989E+01	1.379E+02	9.743E+01	1.582E+01
41.85	2.798E+00	3.392E+00	6.917E+00	9.786E-01	2.904E-01	1.039E+00	-5.032E-01	1.150E+00	-2.022E-03	5.021E+01	1.337E+02	9.262E+01	1.604E+01
41.90	2.775E+00	3.625E+00	6.918E+00	9.924E-01	2.775E-01	1.065E+00	-5.113E-01	1.120E+00	1.783E-02	5.042E+01	1.294E+02	8.793E+01	1.633E+01
41.95	2.732E+00	3.889E+00	6.920E+00	1.002E+00	2.646E-01	1.089E+00	-5.186E-01	1.088E+00	3.749E-02	5.041E+01	1.250E+02	8.344E+01	1.700E+01
42.00	2.680E+00	4.183E+00	6.921E+00	1.008E+00	2.518E-01	1.110E+00	-5.249E-01	1.054E+00	5.693E-02	4.980E+01	1.205E+02	7.905E+01	1.834E+01
42.05	2.649E+00	4.509E+00	6.922E+00	1.014E+00	2.390E-01	1.128E+00	-5.303E-01	1.020E+00	7.612E-02	4.847E+01	1.157E+02	7.464E+01	1.927E+01
42.10	2.782E+00	4.867E+00	6.923E+00	1.017E+00	2.262E-01	1.145E+00	-5.348E-01	9.855E-01	9.502E-02	4.687E+01	1.110E+02	7.052E+01	1.838E+01
42.15	2.824E+00	5.248E+00	6.923E+00	1.016E+00	2.134E-01	1.162E+00	-5.389E-01	9.513E-01	1.135E-01	4.546E+01	1.062E+02	6.667E+01	1.670E+01
42.20	2.739E+00	5.642E+00	6.925E+00	1.008E+00	2.008E-01	1.180E+00	-5.425E-01	9.184E-01	1.316E-01	4.436E+01	1.011E+02	6.284E+01	1.593E+01
42.25	2.550E+00	6.041E+00	6.926E+00	9.924E-01	1.885E-01	1.200E+00	-5.457E-01	8.880E-01	1.491E-01	4.412E+01	9.590E+01	5.931E+01	1.646E+01
42.30	2.492E+00	6.444E+00	6.926E+00	9.708E-01	1.764E-01	1.220E+00	-5.484E-01	8.616E-01	1.659E-01	4.424E+01	9.069E+01	5.609E+01	1.775E+01
42.35	2.636E+00	6.853E+00	6.927E+00	9.455E-01	1.644E-01	1.240E+00	-5.507E-01	8.401E-01	1.818E-01	4.432E+01	8.530E+01	5.303E+01	1.863E+01
42.40	2.719E+00	7.269E+00	6.928E+00	9.196E-01	1.521E-01	1.254E+00	-5.522E-01	8.239E-01	1.969E-01	4.401E+01	7.980E+01	5.019E+01	1.902E+01
42.45	2.727E+00	7.692E+00	6.929E+00	8.970E-01	1.395E-01	1.263E+00	-5.526E-01	8.126E-01	2.113E-01	4.284E+01	7.426E+01	4.761E+01	2.000E+01
42.50	2.673E+00	8.122E+00	6.930E+00	8.802E-01	1.263E-01	1.264E+00	-5.517E-01	8.051E-01	2.251E-01	4.076E+01	6.857E+01	4.518E+01	2.143E+01
42.55	2.547E+00	8.562E+00	6.930E+00	8.704E-01	1.124E-01	1.259E+00	-5.496E-01	8.001E-01	2.383E-01	3.805E+01	6.289E+01	4.286E+01	2.244E+01
42.60	2.612E+00	9.012E+00	6.931E+00	8.666E-01	9.768E-02	1.251E+00	-5.466E-01	7.968E-01	2.510E-01	3.518E+01	5.711E+01	4.064E+01	2.235E+01
42.65	2.472E+00	9.470E+00	6.932E+00	8.666E-01	8.220E-02	1.242E+00	-5.427E-01	7.940E-01	2.633E-01	3.294E+01	5.141E+01	3.868E+01	2.109E+01
42.70	2.463E+00	9.925E+00	6.932E+00	8.685E-01	6.624E-02	1.235E+00	-5.383E-01	7.916E-01	2.754E-01	3.185E+01	4.549E+01	3.696E+01	1.971E+01
42.75	2.438E+00	1.037E+01	6.933E+00	8.711E-01	4.993E-02	1.230E+00	-5.332E-01	7.899E-01	2.872E-01	3.224E+01	3.934E+01	3.557E+01	1.869E+01
42.80	2.406E+00	1.080E+01	6.933E+00	8.741E-01	3.326E-02	1.228E+00	-5.276E-01	7.894E-01	2.986E-01	3.394E+01	3.317E+01	3.455E+01	1.806E+01
42.85	2.333E+00	1.121E+01	6.934E+00	8.788E-01	1.620E-02	1.226E+00	-5.213E-01	7.912E-01	3.093E-01	3.645E+01	2.688E+01	3.379E+01	1.851E+01
42.90	2.433E+00	1.159E+01	6.934E+00	8.880E-01	-1.413E-03	1.224E+00	-5.142E-01	7.963E-01	3.191E-01	3.885E+01	2.038E+01	3.317E+01	1.999E+01
42.95	2.509E+00	1.196E+01	6.934E+00	9.048E-01	-1.982E-02	1.220E+00	-5.063E-01	8.053E-01	3.279E-01	4.042E+01	1.408E+01	3.269E+01	2.175E+01
43.00	2.635E+00	1.232E+01	6.935E+00	9.301E-01	-3.902E-02	1.215E+00	-4.976E-01	8.180E-01	3.355E-01	4.034E+01	7.724E+00	3.231E+01	2.355E+01
43.05	2.665E+00	1.268E+01	6.935E+00	9.623E-01	-5.887E-02	1.208E+00	-4.882E-01	8.331E-01	3.423E-01	3.907E+01	1.404E+00	3.206E+01	2.455E+01
43.10	2.724E+00	1.304E+01	6.936E+00	9.979E-01	-7.901E-02	1.200E+00	-4.783E-01	8.487E-01	3.485E-01	3.749E+01	-4.876E+00	3.199E+01	2.498E+01
43.15	2.717E+00	1.340E+01	6.936E+00	1.033E+00	-9.898E-02	1.193E+00	-4.680E-01	8.631E-01	3.546E-01	3.586E+01	-1.109E+01	3.220E+01	2.592E+01
43.20	2.770E+00	1.375E+01	6.937E+00	1.063E+00	-1.184E-01	1.188E+00	-4.575E-01	8.749E-01	3.606E-01	3.506E+01	-1.744E+01	3.271E+01	2.732E+01
43.25	2.875E+00	1.412E+01	6.938E+00	1.086E+00	-1.372E-01	1.189E+00	-4.472E-01	8.836E-01	3.667E-01	3.547E+01	-2.373E+01	3.352E+01	2.845E+01
43.30	2.988E+00	1.449E+01	6.938E+00	1.102E+00	-1.553E-01	1.196E+00	-4.371E-01	8.897E-01	3.727E-01	3.695E+01	-2.993E+01	3.457E+01	2.881E+01
43.35	3.078E+00	1.487E+01	6.939E+00	1.112E+00	-1.727E-01	1.207E+00	-4.270E-01	8.939E-01	3.784E-01	3.916E+01	-3.619E+01	3.588E+01	2.888E+01
43.40	2.920E+00	1.525E+01	6.940E+00	1.118E+00	-1.896E-01	1.218E+00	-4.167E-01	8.973E-01	3.837E-01	4.119E+01	-4.252E+01	3.744E+01	2.927E+01
43.45	2.876E+00	1.563E+01	6.940E+00	1.123E+00	-2.061E-01	1.227E+00	-4.058E-01	9.000E-01	3.885E-01	4.261E+01	-4.864E+01	3.918E+01	2.952E+01
43.50	2.919E+00	1.601E+01	6.941E+00	1.130E+00	-2.224E-01	1.230E+00	-3.941E-01	9.012E-01	3.926E-01	4.328E+01	-5.465E+01	4.108E+01	2.893E+01
43.55	3.006E+00	1.639E+01	6.941E+00	1.137E+00	-2.385E-01	1.227E+00	-3.815E-01	8.995E-01	3.960E-01	4.322E+01	-6.061E+01	4.317E+01	2.755E+01
43.60	2.990E+00	1.676E+01	6.941E+00	1.145E+00	-2.545E-01	1.215E+00	-3.680E-01	8.932E-01	3.989E-01	4.276E+01	-6.636E+01	4.540E+01	2.634E+01
43.65	2.979E+00	1.711E+01	6.942E+00	1.153E+00	-2.703E-01	1.197E+00	-3.534E-01	8.816E-01	4.014E-01	4.221E+01	-7.202E+01	4.786E+01	2.671E+01
43.70	2.854E+00	1.744E+01	6.942E+00	1.160E+00	-2.858E-01	1.174E+00	-3.382E-01	8.647E-01	4.036E-01	4.218E+01	-7.775E+01	5.062E+01	2.872E+01
43.75	2.877E+00	1.776E+01	6.943E+00	1.163E+00	-3.009E-01	1.152E+00	-3.225E-01	8.436E-01	4.056E-01	4.283E+01	-8.333E+01	5.358E+01	3.092E+01
43.80	2.917E+00	1.807E+01	6.943E+00	1.162E+00	-3.155E-01	1.136E+00	-3.067E-01	8.205E-01	4.073E-01	4.400E+01	-8.882E+01	5.678E+01	3.238E+01
43.85	2.939E+00	1.839E+01	6.944E+00	1.155E+00	-3.297E-01	1.128E+00	-2.912E-01	7.975E-01	4.085E-01	4.573E+01	-9.435E+01	6.029E+01	3.300E+01
43.90	3.041E+00	1.871E+01	6.944E+00	1.147E+00	-3.435E-01	1.127E+00	-2.757E-01	7.766E-01	4.091E-01	4.743E+01	-9.977E+01	6.397E+01	3.287E+01
43.95	3.034E+00	1.903E+01	6.944E+00	1.138E+00	-3.571E-01	1.132E+00	-2.603E-01	7.587E-01	4.090E-01	4.831E+01	-1.050E+02	6.778E+01	3.213E+01
44.00	3.137E+00	1.935E+01	6.944E+00	1.132E+00	-3.704E-01	1.140E+00	-2.448E-01	7.445E-01	4.080E-01	4.833E+01	-1.101E+02	7.177E+01	3.089E+01
44.05	3.148E+00	1.965E+01	6.945E+00	1.129E+00	-3.835E-01	1.148E+00	-2.291E-01	7.340E-01	4.061E-01	4.730E+01	-1.150E+02	7.587E+01	2.914E+01
44.10	3.180E+00	1.994E+01	6.945E+00	1.130E+00	-3.962E-01	1.156E+00	-2.134E-01	7.276E-01	4.032E-01	4.540E+01	-1.197E+02	8.001E+01	2.736E+01
44.15	3.213E+00	2.019E+01	6.945E+00	1.131E+00	-4.083E-01	1.165E+00	-1.978E-01	7.266E-01	3.994E-01	4.332E+01	-1.242E+02	8.426E+01	2.662E+01
44.20	3.287E+00	2.042E+01	6.945E+00	1.132E+00	-4.196E-01	1.179E+00	-1.826E-01	7.324E-01	3.945E-01	4.157E+01	-1.285E+02	8.869E+01	2.714E+01
44.25	3.397E+00	2.061E+01	6.945E+00	1.128E+00	-4.302E-01	1.199E+00	-1.682E-01	7.458E-01	3.884E-01	4.088E+01	-1.327E+02	9.333E+01	2.861E+01
44.30	3.404E+00	2.078E+01	6.945E+00	1.121E+00	-4.400E-01	1.225E+00	-1.543E-01	7.675E-01	3.811E-01	4.136E+01	-1.366E+02	9.827E+01	3.110E+01
44.35	3.300E+00	2.094E+01	6.945E+00	1.112E+00	-4.491E-01	1.253E+00	-1.408E-01	7.973E-01	3.725E-01	4.253E+01	-1.404E+02	1.035E+02	3.412E+01
44.40	3.177E+00	2.111E+01	6.945E+00	1.104E+00	-4.575E-01	1.279E+00	-1.270E-01	8.347E-01	3.626E-01	4.395E+01	-1.439E+02	1.087E+02	3.718E+01
44.45	3.051E+00	2.129E+01	6.946E+00	1.097E+00	-4.653E-01	1.298E+00	-1.124E-01	8.780E-01	3.515E-01	4.531E+01	-1.473E+02	1.141E+02	3.992E+01
44.50	3.058E+00	2.149E+01	6.947E+00	1.093E+00	-4.726E-01	1.305E+00	-9.675E-02	9.243E-01	3.393E-01	4.644E+01	-1.505E+02	1.196E+02	4.221E+01
44.55	3.094E+00	2.173E+01	6.948E+00	1.090E+00	-4.795E-01	1.300E+00	-7.971E-02	9.692E-01	3.264E-01	4.659E+01	-1.536E+02	1.251E+02	4.392E+01
44.60	3.177E+00	2.201E+01	6.949E+00	1.091E+00	-4.862E-01	1.284E+00	-6.142E-02	1.010E+00	3.132E-01	4.597E+01	-1.564E+02	1.306E+02	4.518E+01
44.65	3.368E+00	2.232E+01	6.950E+00	1.096E+00	-4.929E-01	1.261E+00	-4.222E-02	1.043E+00	2.998E-01	4.438E+01	-1.590E+02	1.364E+02	4.557E+01
44.70	3.210E+00	2.266E+01	6.951E+00	1.102E+00	-4.995E-01	1.235E+00	-2.255E-02	1.068E+00	2.863E-01	4.248E+01	-1.612E+02	1.420E+02	4.453E+01
44.75	3.157E+00	2.304E+01	6.952E+00	1.105E+00	-5.059E-01	1.206E+00	-2.741E-03	1.085E+00	2.730E-01	4.113E+01	-1.632E+02	1.479E+02	4.350E+01
44.80	3.204E+00	2.343E+01	6.953E+00	1.105E+00	-5.117E-01	1.178E+00	1.706E-02	1.097E+00	2.599E-01	4.079E+01	-1.653E+02	1.540E+02	4.354E+01
44.85	3.091E+00	2.383E+01	6.954E+00	1.103E+00	-5.170E-01	1.148E+00	3.678E-02	1.105E+00	2.471E-01	4.133E+01	-1.672E+02	1.601E+02	4.384E+01
44.90	3.247E+00	2.424E+01	6.955E+00	1.103E+00	-5.220E-01	1.116E+00	5.641E-02	1.109E+00	2.343E-01	4.254E+01	-1.690E+02	1.663E+02	4.359E+01
44.95	3.249E+00	2.466E+01	6.955E+00	1.107E+00	-5.269E-01	1.079E+00	7.601E-02	1.108E+00	2.218E-01	4.408E+01	-1.706E+02	1.727E+02	4.272E+01
45.00	3.224E+00	2.508E+01	6.956E+00	1.118E+00	-5.318E-01	1.037E+00	9.568E-02	1.101E+00	2.096E-01	4.524E+01	-1.720E+02	1.789E+02	4.196E+01
45.05	3.216E+00	2.549E+01	6.957E+00	1.136E+00	-5.368E-01	9.930E-01	1.154E-01	1.085E+00	1.979E-01	4.593E+01	-1.731E+02	1.850E+02	4.207E+01
45.10	3.421E+00	2.590E+01	6.957E+00	1.163E+00	-5.417E-01	9.489E-01	1.347E-01	1.061E+00	1.868E-01	4.633E+01	-1.740E+02	1.913E+02	4.255E+01
45.15	3.509E+00	2.629E+01	6.957E+00	1.195E+00	-5.464E-01	9.082E-01	1.534E-01	1.029E+00	1.760E-01	4.611E+01	-1.746E+02	1.974E+02	4.218E+01
45.20	3.368E+00	2.667E+01	6.957E+00	1.230E+00	-5.507E-01	8.737E-01	1.710E-01	9.938E-01	1.652E-01	4.599E+01	-1.749E+02	2.033E+02	4.097E+01
45.25	3.475E+00	2.703E+01	6.958E+00	1.260E+00	-5.541E-01	8.470E-01	1.875E-01	9.590E-01	1.543E-01	4.691E+01	-1.750E+02	2.096E+02	4.040E+01
45.30	3.460E+00	2.738E+01	6.958E+00	1.283E+00	-5.561E-01	8.279E-01	2.029E-01	9.279E-01	1.429E-01	4.905E+01	-1.748E+02	2.160E+02	4.074E+01
45.35	3.459E+00	2.769E+01	6.958E+00	1.298E+00	-5.566E-01	8.147E-01	2.173E-01	9.026E-01	1.306E-01	5.182E+01	-1.746E+02	2.221E+02	4.151E+01
45.40	3.527E+00	2.799E+01	6.958E+00	1.304E+00	-5.557E-01	8.054E-01	2.310E-01	8.832E-01	1.175E-01	5.485E+01	-1.741E+02	2.284E+02	4.233E+01
45.45	3.419E+00	2.828E+01	6.958E+00	1.306E+00	-5.537E-01	7.978E-01	2.442E-01	8.686E-01	1.034E-01	5.746E+01	-1.733E+02	2.348E+02	4.276E+01
45.50	3.380E+00	2.855E+01	6.958E+00	1.305E+00	-5.506E-01	7.904E-01	2.572E-01	8.569E-01	8.858E-02	5.868E+01	-1.723E+02	2.409E+02	4.278E+01
45.55	3.173E+00	2.880E+01	6.959E+00	1.304E+00	-5.467E-01	7.836E-01	2.700E-01	8.477E-01	7.307E-02	5.844E+01	-1.709E+02	2.467E+02	4.295E+01
45.60	3.200E+00	2.904E+01	6.959E+00	1.304E+00	-5.421E-01	7.793E-01	2.825E-01	8.418E-01	5.702E-02	5.709E+01	-1.692E+02	2.527E+02	4.326E+01
45.65	3.309E+00	2.927E+01	6.958E+00	1.304E+00	-5.369E-01	7.804E-01	2.943E-01	8.401E-01	4.035E-02	5.492E+01	-1.672E+02	2.585E+02	4.237E+01
45.70	3.385E+00	2.947E+01	6.958E+00	1.301E+00	-5.311E-01	7.889E-01	3.051E-01	8.438E-01	2.308E-02	5.277E+01	-1.649E+02	2.641E+02	4.015E+01
45.75	3.169E+00	2.965E+01	6.958E+00	1.295E+00	-5.245E-01	8.053E-01	3.147E-01	8.543E-01	5.339E-03	5.173E+01	-1.624E+02	2.699E+02	3.824E+01
45.80	3.202E+00	2.980E+01	6.958E+00	1.283E+00	-5.169E-01	8.283E-01	3.231E-01	8.722E-01	-1.282E-02	5.189E+01	-1.598E+02	2.757E+02	3.759E+01
45.85	3.066E+00	2.990E+01	6.957E+00	1.266E+00	-5.083E-01	8.557E-01	3.305E-01	8.970E-01	-3.138E-02	5.302E+01	-1.572E+02	2.813E+02	3.847E+01
45.90	3.015E+00	2.998E+01	6.957E+00	1.246E+00	-4.989E-01	8.848E-01	3.369E-01	9.274E-01	-5.023E-02	5.509E+01	-1.544E+02	2.871E+02	4.090E+01
45.95	2.930E+00	3.004E+01	6.957E+00	1.228E+00	-4.891E-01	9.131E-01	3.427E-01	9.616E-01	-6.935E-02	5.689E+01	-1.513E+02	2.928E+02	4.365E+01
46.00	2.967E+00	3.009E+01	6.957E+00	1.218E+00	-4.793E-01	9.384E-01	3.481E-01	9.962E-01	-8.866E-02	5.733E+01	-1.481E+02	2.980E+02	4.539E+01
46.05	3.184E+00	3.014E+01	6.957E+00	1.217E+00	-4.696E-01	9.600E-01	3.532E-01	1.027E+00	-1.078E-01	5.631E+01	-1.445E+02	3.031E+02	4.675E+01
46.10	3.162E+00	3.020E+01	6.958E+00	1.226E+00	-4.602E-01	9.787E-01	3.581E-01	1.052E+00	-1.265E-01	5.446E+01	-1.405E+02	3.081E+02	4.833E+01
46.15	3.095E+00	3.028E+01	6.958E+00	1.240E+00	-4.506E-01	9.958E-01	3.628E-01	1.069E+00	-1.445E-01	5.247E+01	-1.365E+02	3.128E+02	4.954E+01
46.20	3.035E+00	3.038E+01	6.958E+00	1.257E+00	-4.406E-01	1.012E+00	3.671E-01	1.079E+00	-1.619E-01	5.115E+01	-1.323E+02	3.173E+02	4.986E+01
46.25	3.037E+00	3.049E+01	6.958E+00	1.273E+00	-4.300E-01	1.029E+00	3.711E-01	1.084E+00	-1.788E-01	5.113E+01	-1.278E+02	3.219E+02	4.910E+01
46.30	3.105E+00	3.061E+01	6.958E+00	1.287E+00	-4.187E-01	1.045E+00	3.745E-01	1.085E+00	-1.953E-01	5.222E+01	-1.233E+02	3.264E+02	4.702E+01
46.35	3.124E+00	3.074E+01	6.959E+00	1.298E+00	-4.068E-01	1.058E+00	3.776E-01	1.084E+00	-2.116E-01	5.417E+01	-1.187E+02	3.307E+02	4.447E+01
46.40	3.121E+00	3.085E+01	6.959E+00	1.306E+00	-3.944E-01	1.065E+00	3.804E-01	1.082E+00	-2.276E-01	5.659E+01	-1.139E+02	3.351E+02	4.269E+01
46.45	3.117E+00	3.095E+01	6.959E+00	1.312E+00	-3.817E-01	1.063E+00	3.832E-01	1.075E+00	-2.432E-01	5.912E+01	-1.091E+02	3.392E+02	4.215E+01
46.50	3.126E+00	3.103E+01	6.959E+00	1.317E+00	-3.689E-01	1.054E+00	3.862E-01	1.064E+00	-2.583E-01	6.115E+01	-1.043E+02	3.430E+02	4.318E+01
46.55	3.111E+00	3.109E+01	6.959E+00	1.320E+00	-3.560E-01	1.037E+00	3.893E-01	1.050E+00	-2.726E-01	6.246E+01	-9.929E+01	3.466E+02	4.533E+01
46.60	3.045E+00	3.114E+01	6.959E+00	1.321E+00	-3.429E-01	1.016E+00	3.924E-01	1.035E+00	-2.865E-01	6.279E+01	-9.411E+01	3.499E+02	4.725E+01
46.65	3.027E+00	3.120E+01	6.959E+00	1.319E+00	-3.296E-01	9.943E-01	3.951E-01	1.025E+00	-3.002E-01	6.244E+01	-8.883E+01	3.529E+02	4.813E+01
46.70	3.071E+00	3.127E+01	6.959E+00	1.315E+00	-3.160E-01	9.733E-01	3.971E-01	1.023E+00	-3.138E-01	6.171E+01	-8.336E+01	3.558E+02	4.790E+01
46.75	3.083E+00	3.134E+01	6.959E+00	1.308E+00	-3.020E-01	9.539E-01	3.982E-01	1.031E+00	-3.277E-01	6.081E+01	-7.782E+01	3.585E+02	4.656E+01
46.80	3.125E+00	3.141E+01	6.959E+00	1.299E+00	-2.874E-01	9.355E-01	3.985E-01	1.050E+00	-3.420E-01	6.009E+01	-7.223E+01	3.612E+02	4.460E+01
46.85	3.019E+00	3.147E+01	6.958E+00	1.288E+00	-2.722E-01	9.169E-01	3.980E-01	1.078E+00	-3.567E-01	5.962E+01	-6.649E+01	3.637E+02	4.252E+01
46.90	3.173E+00	3.151E+01	6.958E+00	1.274E+00	-2.561E-01	8.976E-01	3.970E-01	1.115E+00	-3.717E-01	5.984E+01	-6.066E+01	3.660E+02	4.048E+01
46.95	3.206E+00	3.152E+01	6.958E+00	1.260E+00	-2.393E-01	8.777E-01	3.955E-01	1.157E+00	-3.869E-01	6.061E+01	-5.472E+01	3.680E+02	3.914E+01
47.00	3.042E+00	3.150E+01	6.957E+00	1.247E+00	-2.218E-01	8.587E-01	3.933E-01	1.201E+00	-4.022E-01	6.104E+01	-4.857E+01	3.697E+02	3.926E+01
47.05	3.119E+00	3.145E+01	6.957E+00	1.237E+00	-2.040E-01	8.429E-01	3.903E-01	1.244E+00	-4.174E-01	6.104E+01	-4.233E+01	3.712E+02	4.033E+01
47.10	3.077E+00	3.138E+01	6.956E+00	1.228E+00	-1.858E-01	8.330E-01	3.860E-01	1.283E+00	-4.325E-01	6.077E+01	-3.598E+01	3.725E+02	4.184E+01
47.15	2.895E+00	3.130E+01	6.956E+00	1.222E+00	-1.675E-01	8.302E-01	3.805E-01	1.315E+00	-4.471E-01	6.000E+01	-2.939E+01	3.736E+02	4.350E+01
47.20	2.907E+00	3.121E+01	6.956E+00	1.215E+00	-1.490E-01	8.347E-01	3.738E-01	1.342E+00	-4.611E-01	5.903E+01	-2.273E+01	3.746E+02	4.481E+01
47.25	2.917E+00	3.113E+01	6.956E+00	1.207E+00	-1.301E-01	8.456E-01	3.659E-01	1.362E+00	-4.744E-01	5.827E+01	-1.616E+01	3.753E+02	4.558E+01
47.30	2.811E+00	3.105E+01	6.956E+00	1.198E+00	-1.110E-01	8.612E-01	3.572E-01	1.373E+00	-4.865E-01	5.792E+01	-9.553E+00	3.758E+02	4.622E+01
47.35	2.922E+00	3.099E+01	6.956E+00	1.186E+00	-9.182E-02	8.795E-01	3.479E-01	1.375E+00	-4.973E-01	5.778E+01	-2.936E+00	3.761E+02	4.669E+01
47.40	2.950E+00	3.093E+01	6.956E+00	1.171E+00	-7.278E-02	8.987E-01	3.380E-01	1.367E+00	-5.064E-01	5.806E+01	3.547E+00	3.761E+02	4.669E+01
47.45	2.932E+00	3.089E+01	6.956E+00	1.156E+00	-5.415E-02	9.177E-01	3.275E-01	1.349E+00	-5.137E-01	5.837E+01	9.948E+00	3.760E+02	4.657E+01
47.50	2.928E+00	3.085E+01	6.956E+00	1.143E+00	-3.621E-02	9.362E-01	3.166E-01	1.321E+00	-5.191E-01	5.865E+01	1.637E+01	3.758E+02	4.666E+01
47.55	2.922E+00	3.083E+01	6.956E+00	1.132E+00	-1.907E-02	9.543E-01	3.052E-01	1.288E+00	-5.229E-01	5.847E+01	2.269E+01	3.752E+02	4.661E+01
47.60	2.805E+00	3.081E+01	6.956E+00	1.126E+00	-2.728E-03	9.724E-01	2.933E-01	1.253E+00	-5.253E-01	5.782E+01	2.888E+01	3.743E+02	4.611E+01
47.65	2.723E+00	3.080E+01	6.956E+00	1.122E+00	1.294E-02	9.910E-01	2.808E-01	1.218E+00	-5.267E-01	5.707E+01	3.501E+01	3.731E+02	4.535E+01
47.70	2.622E+00	3.079E+01	6.956E+00	1.119E+00	2.818E-02	1.010E+00	2.675E-01	1.187E+00	-5.274E-01	5.636E+01	4.105E+01	3.716E+02	4.452E+01
47.75	2.534E+00	3.078E+01	6.957E+00	1.115E+00	4.327E-02	1.029E+00	2.535E-01	1.160E+00	-5.276E-01	5.614E+01	4.697E+01	3.700E+02	4.422E+01
47.80	2.627E+00	3.077E+01	6.957E+00	1.108E+00	5.852E-02	1.046E+00	2.389E-01	1.139E+00	-5.276E-01	5.631E+01	5.289E+01	3.683E+02	4.454E+01
47.85	2.841E+00	3.076E+01	6.956E+00	1.098E+00	7.417E-02	1.059E+00	2.241E-01	1.125E+00	-5.277E-01	5.691E+01	5.878E+01	3.664E+02	4.476E+01
47.90	2.781E+00	3.075E+01	6.956E+00	1.084E+00	9.038E-02	1.066E+00	2.093E-01	1.116E+00	-5.281E-01	5.761E+01	6.457E+01	3.644E+02	4.455E+01
47.95	2.612E+00	3.073E+01	6.956E+00	1.069E+00	1.071E-01	1.066E+00	1.949E-01	1.110E+00	-5.287E-01	5.790E+01	7.044E+01	3.620E+02	4.432E+01
48.00	2.627E+00	3.072E+01	6.957E+00	1.052E+00	1.243E-01	1.058E+00	1.809E-01	1.105E+00	-5.295E-01	5.758E+01	7.634E+01	3.591E+02	4.482E+01
48.05	2.681E+00	3.071E+01	6.957E+00	1.033E+00	1.418E-01	1.046E+00	1.673E-01	1.102E+00	-5.304E-01	5.676E+01	8.206E+01	3.561E+02	4.576E+01
48.10	2.686E+00	3.070E+01	6.957E+00	1.013E+00	1.593E-01	1.031E+00	1.538E-01	1.100E+00	-5.315E-01	5.543E+01	8.776E+01	3.529E+02	4.612E+01
48.15	2.661E+00	3.070E+01	6.956E+00	9.915E-01	1.765E-01	1.016E+00	1.402E-01	1.101E+00	-5.326E-01	5.393E+01	9.352E+01	3.496E+02	4.555E+01
48.20	2.593E+00	3.070E+01	6.956E+00	9.670E-01	1.935E-01	1.002E+00	1.266E-01	1.104E+00	-5.338E-01	5.247E+01	9.919E+01	3.462E+02	4.457E+01
48.25	2.809E+00	3.070E+01	6.956E+00	9.405E-01	2.101E-01	9.892E-01	1.128E-01	1.111E+00	-5.348E-01	5.140E+01	1.047E+02	3.427E+02	4.391E+01
48.30	2.730E+00	3.070E+01	6.956E+00	9.134E-01	2.265E-01	9.769E-01	9.906E-02	1.123E+00	-5.356E-01	5.072E+01	1.099E+02	3.390E+02	4.385E+01
48.35	2.729E+00	3.069E+01	6.956E+00	8.879E-01	2.422E-01	9.637E-01	8.517E-02	1.141E+00	-5.360E-01	5.035E+01	1.149E+02	3.351E+02	4.363E+01
48.40	2.563E+00	3.068E+01	6.956E+00	8.664E-01	2.570E-01	9.496E-01	7.106E-02	1.164E+00	-5.360E-01	5.011E+01	1.196E+02	3.310E+02	4.310E+01
48.45	2.575E+00	3.066E+01	6.956E+00	8.507E-01	2.708E-01	9.368E-01	5.657E-02	1.190E+00	-5.352E-01	4.976E+01	1.242E+02	3.267E+02	4.290E+01
48.50	2.681E+00	3.063E+01	6.956E+00	8.419E-01	2.833E-01	9.284E-01	4.148E-02	1.219E+00	-5.334E-01	4.921E+01	1.285E+02	3.222E+02	4.282E+01
48.55	2.640E+00	3.060E+01	6.956E+00	8.400E-01	2.945E-01	9.277E-01	2.557E-02	1.248E+00	-5.304E-01	4.871E+01	1.327E+02	3.176E+02	4.255E+01
48.60	2.706E+00	3.056E+01	6.955E+00	8.444E-01	3.044E-01	9.363E-01	8.727E-03	1.276E+00	-5.263E-01	4.835E+01	1.368E+02	3.128E+02	4.233E+01
48.65	2.703E+00	3.052E+01	6.955E+00	8.544E-01	3.132E-01	9.539E-01	-8.993E-03	1.304E+00	-5.211E-01	4.827E+01	1.407E+02	3.079E+02	4.276E+01
48.70	2.702E+00	3.047E+01	6.956E+00	8.698E-01	3.211E-01	9.781E-01	-2.746E-02	1.331E+00	-5.149E-01	4.846E+01	1.444E+02	3.028E+02	4.409E+01
48.75	2.726E+00	3.042E+01	6.956E+00	8.901E-01	3.282E-01	1.006E+00	-4.649E-02	1.358E+00	-5.081E-01	4.888E+01	1.478E+02	2.976E+02	4.599E+01
48.80	2.594E+00	3.039E+01	6.956E+00	9.150E-01	3.346E-01	1.034E+00	-6.591E-02	1.385E+00	-5.010E-01	4.960E+01	1.511E+02	2.923E+02	4.772E+01
48.85	2.800E+00	3.037E+01	6.956E+00	9.435E-01	3.403E-01	1.060E+00	-8.542E-02	1.411E+00	-4.936E-01	5.053E+01	1.542E+02	2.869E+02	4.897E+01
48.90	2.860E+00	3.037E+01	6.957E+00	9.744E-01	3.457E-01	1.081E+00	-1.046E-01	1.433E+00	-4.858E-01	5.160E+01	1.571E+02	2.814E+02	4.995E+01
48.95	2.827E+00	3.040E+01	6.957E+00	1.006E+00	3.508E-01	1.097E+00	-1.233E-01	1.449E+00	-4.773E-01	5.274E+01	1.599E+02	2.757E+02	5.152E+01
49.00	2.763E+00	3.046E+01	6.958E+00	1.038E+00	3.558E-01	1.107E+00	-1.412E-01	1.456E+00	-4.681E-01	5.392E+01	1.624E+02	2.700E+02	5.363E+01
49.05	2.782E+00	3.055E+01	6.959E+00	1.070E+00	3.604E-01	1.115E+00	-1.586E-01	1.454E+00	-4.579E-01	5.493E+01	1.647E+02	2.642E+02	5.547E+01
49.10	2.745E+00	3.069E+01	6.960E+00	1.101E+00	3.644E-01	1.122E+00	-1.757E-01	1.442E+00	-4.469E-01	5.542E+01	1.669E+02	2.582E+02	5.641E+01
49.15	2.894E+00	3.087E+01	6.961E+00	1.133E+00	3.677E-01	1.128E+00	-1.924E-01	1.424E+00	-4.351E-01	5.550E+01	1.689E+02	2.522E+02	5.652E+01
49.20	2.872E+00	3.109E+01	6.962E+00	1.165E+00	3.701E-01	1.134E+00	-2.089E-01	1.402E+00	-4.225E-01	5.507E+01	1.706E+02	2.462E+02	5.644E+01
49.25	2.849E+00	3.134E+01	6.963E+00	1.195E+00	3.717E-01	1.139E+00	-2.250E-01	1.377E+00	-4.092E-01	5.435E+01	1.721E+02	2.401E+02	5.613E+01
49.30	2.972E+00	3.162E+01	6.964E+00	1.218E+00	3.727E-01	1.143E+00	-2.407E-01	1.351E+00	-3.951E-01	5.388E+01	1.733E+02	2.339E+02	5.539E+01
49.35	2.994E+00	3.192E+01	6.965E+00	1.234E+00	3.734E-01	1.143E+00	-2.560E-01	1.324E+00	-3.801E-01	5.419E+01	1.742E+02	2.279E+02	5.472E+01
49.40	3.006E+00	3.224E+01	6.966E+00	1.240E+00	3.739E-01	1.142E+00	-2.709E-01	1.295E+00	-3.640E-01	5.511E+01	1.747E+02	2.218E+02	5.509E+01
49.45	2.930E+00	3.257E+01	6.967E+00	1.236E+00	3.742E-01	1.138E+00	-2.855E-01	1.264E+00	-3.470E-01	5.632E+01	1.748E+02	2.156E+02	5.653E+01
49.50	2.654E+00	3.291E+01	6.968E+00	1.226E+00	3.742E-01	1.135E+00	-2.999E-01	1.232E+00	-3.291E-01	5.745E+01	1.746E+02	2.095E+02	5.809E+01
49.55	2.543E+00	3.328E+01	6.968E+00	1.211E+00	3.740E-01	1.133E+00	-3.142E-01	1.200E+00	-3.106E-01	5.791E+01	1.743E+02	2.033E+02	5.884E+01
49.60	2.596E+00	3.367E+01	6.969E+00	1.193E+00	3.736E-01	1.134E+00	-3.287E-01	1.172E+00	-2.919E-01	5.741E+01	1.738E+02	1.970E+02	5.798E+01
49.65	2.676E+00	3.406E+01	6.969E+00	1.171E+00	3.731E-01	1.140E+00	-3.435E-01	1.149E+00	-2.733E-01	5.611E+01	1.732E+02	1.908E+02	5.535E+01
49.70	2.740E+00	3.445E+01	6.969E+00	1.144E+00	3.728E-01	1.150E+00	-3.586E-01	1.129E+00	-2.549E-01	5.441E+01	1.725E+02	1.846E+02	5.188E+01
49.75	2.857E+00	3.482E+01	6.970E+00	1.112E+00	3.728E-01	1.163E+00	-3.737E-01	1.112E+00	-2.368E-01	5.246E+01	1.716E+02	1.784E+02	4.903E+01
49.80	2.873E+00	3.516E+01	6.970E+00	1.076E+00	3.730E-01	1.179E+00	-3.887E-01	1.097E+00	-2.193E-01	5.062E+01	1.705E+02	1.722E+02	4.746E+01
49.85	2.836E+00	3.545E+01	6.970E+00	1.037E+00	3.733E-01	1.195E+00	-4.033E-01	1.084E+00	-2.023E-01	4.908E+01	1.693E+02	1.662E+02	4.723E+01
49.90	2.818E+00	3.571E+01	6.969E+00	9.981E-01	3.734E-01	1.209E+00	-4.171E-01	1.076E+00	-1.863E-01	4.779E+01	1.679E+02	1.601E+02	4.815E+01
49.95	2.801E+00	3.592E+01	6.969E+00	9.623E-01	3.730E-01	1.221E+00	-4.301E-01	1.077E+00	-1.713E-01	4.674E+01	1.663E+02	1.541E+02	4.972E+01
50.00	2.524E+00	3.611E+01	6.969E+00	9.318E-01	3.718E-01	1.230E+00	-4.421E-01	1.086E+00	-1.573E-01	4.574E+01	1.646E+02	1.482E+02	5.163E+01
50.05	2.614E+00	3.628E+01	6.969E+00	9.079E-01	3.696E-01	1.234E+00	-4.531E-01	1.104E+00	-1.440E-01	4.491E+01	1.625E+02	1.423E+02	5.356E+01
50.10	2.615E+00	3.645E+01	6.969E+00	8.914E-01	3.661E-01	1.235E+00	-4.631E-01	1.128E+00	-1.312E-01	4.429E+01	1.602E+02	1.367E+02	5.513E+01
50.15	2.344E+00	3.660E+01	6.969E+00	8.824E-01	3.611E-01	1.232E+00	-4.722E-01	1.156E+00	-1.183E-01	4.384E+01	1.576E+02	1.310E+02	5.583E+01
50.20	2.419E+00	3.676E+01	6.969E+00	8.810E-01	3.546E-01	1.227E+00	-4.805E-01	1.184E+00	-1.050E-01	4.391E+01	1.548E+02	1.255E+02	5.517E+01
50.25	2.377E+00	3.691E+01	6.969E+00	8.873E-01	3.464E-01	1.221E+00	-4.880E-01	1.212E+00	-9.116E-02	4.456E+01	1.518E+02	1.201E+02	5.357E+01
50.30	2.438E+00	3.706E+01	6.969E+00	9.018E-01	3.366E-01	1.213E+00	-4.948E-01	1.237E+00	-7.655E-02	4.554E+01	1.485E+02	1.148E+02	5.205E+01
50.35	2.375E+00	3.718E+01	6.969E+00	9.237E-01	3.252E-01	1.202E+00	-5.009E-01	1.256E+00	-6.106E-02	4.683E+01	1.448E+02	1.095E+02	5.125E+01
50.40	2.377E+00	3.728E+01	6.969E+00	9.517E-01	3.123E-01	1.187E+00	-5.063E-01	1.266E+00	-4.463E-02	4.847E+01	1.410E+02	1.045E+02	5.211E+01
50.45	2.433E+00	3.736E+01	6.970E+00	9.839E-01	2.984E-01	1.169E+00	-5.109E-01	1.269E+00	-2.741E-02	5.006E+01	1.369E+02	9.957E+01	5.531E+01
50.50	2.434E+00	3.745E+01	6.970E+00	1.018E+00	2.837E-01	1.150E+00	-5.147E-01	1.264E+00	-9.656E-03	5.140E+01	1.324E+02	9.465E+01	5.956E+01
50.55	2.606E+00	3.755E+01	6.970E+00	1.051E+00	2.685E-01	1.131E+00	-5.181E-01	1.252E+00	8.427E-03	5.257E+01	1.279E+02	8.999E+01	6.296E+01
50.60	2.729E+00	3.768E+01	6.971E+00	1.083E+00	2.531E-01	1.115E+00	-5.211E-01	1.236E+00	2.662E-02	5.320E+01	1.233E+02	8.543E+01	6.506E+01
50.65	2.830E+00	3.784E+01	6.971E+00	1.112E+00	2.377E-01	1.104E+00	-5.239E-01	1.216E+00	4.486E-02	5.312E+01	1.184E+02	8.081E+01	6.552E+01
50.70	2.780E+00	3.804E+01	6.972E+00	1.137E+00	2.225E-01	1.100E+00	-5.267E-01	1.189E+00	6.323E-02	5.280E+01	1.136E+02	7.654E+01	6.390E+01
50.75	2.836E+00	3.827E+01	6.973E+00	1.157E+00	2.076E-01	1.100E+00	-5.295E-01	1.157E+00	8.180E-02	5.232E+01	1.088E+02	7.253E+01	6.133E+01
50.80	2.668E+00	3.850E+01	6.973E+00	1.170E+00	1.933E-01	1.107E+00	-5.323E-01	1.119E+00	1.005E-01	5.177E+01	1.036E+02	6.859E+01	5.883E+01
50.85	2.531E+00	3.873E+01	6.973E+00	1.174E+00	1.795E-01	1.118E+00	-5.352E-01	1.075E+00	1.194E-01	5.155E+01	9.849E+01	6.490E+01	5.651E+01
50.90	2.660E+00	3.894E+01	6.974E+00	1.169E+00	1.663E-01	1.131E+00	-5.378E-01	1.027E+00	1.382E-01	5.156E+01	9.335E+01	6.147E+01	5.543E+01
50.95	2.570E+00	3.914E+01	6.974E+00	1.155E+00	1.536E-01	1.141E+00	-5.397E-01	9.798E-01	1.567E-01	5.148E+01	8.798E+01	5.810E+01	5.700E+01
51.00	2.533E+00	3.932E+01	6.975E+00	1.136E+00	1.414E-01	1.148E+00	-5.410E-01	9.354E-01	1.747E-01	5.091E+01	8.240E+01	5.488E+01	6.043E+01
51.05	2.564E+00	3.950E+01	6.975E+00	1.112E+00	1.290E-01	1.154E+00	-5.418E-01	8.968E-01	1.921E-01	4.976E+01	7.682E+01	5.201E+01	6.329E+01
51.10	2.468E+00	3.969E+01	6.975E+00	1.088E+00	1.162E-01	1.158E+00	-5.422E-01	8.653E-01	2.087E-01	4.793E+01	7.126E+01	4.941E+01	6.445E+01
51.15	2.583E+00	3.990E+01	6.975E+00	1.064E+00	1.029E-01	1.165E+00	-5.421E-01	8.408E-01	2.245E-01	4.545E+01	6.541E+01	4.693E+01	6.457E+01
51.20	2.601E+00	4.012E+01	6.976E+00	1.041E+00	8.901E-02	1.176E+00	-5.416E-01	8.219E-01	2.396E-01	4.290E+01	5.950E+01	4.469E+01	6.373E+01
51.25	2.624E+00	4.035E+01	6.976E+00	1.019E+00	7.446E-02	1.192E+00	-5.405E-01	8.073E-01	2.543E-01	4.095E+01	5.370E+01	4.274E+01	6.201E+01
51.30	2.705E+00	4.058E+01	6.976E+00	9.992E-01	5.940E-02	1.210E+00	-5.387E-01	7.967E-01	2.683E-01	3.952E+01	4.762E+01	4.091E+01	6.057E+01
51.35	2.676E+00	4.080E+01	6.977E+00	9.814E-01	4.393E-02	1.229E+00	-5.360E-01	7.905E-01	2.815E-01	3.895E+01	4.130E+01	3.929E+01	5.994E+01
51.40	2.742E+00	4.101E+01	6.977E+00	9.677E-01	2.799E-02	1.246E+00	-5.323E-01	7.902E-01	2.937E-01	3.918E+01	3.506E+01	3.802E+01	6.000E+01
51.45	2.843E+00	4.120E+01	6.977E+00	9.600E-01	1.157E-02	1.260E+00	-5.275E-01	7.983E-01	3.047E-01	3.973E+01	2.877E+01	3.702E+01	6.110E+01
51.50	2.856E+00	4.138E+01	6.978E+00	9.600E-01	-5.240E-03	1.270E+00	-5.218E-01	8.177E-01	3.140E-01	4.008E+01	2.227E+01	3.618E+01	6.363E+01
51.55	2.819E+00	4.157E+01	6.978E+00	9.680E-01	-2.247E-02	1.277E+00	-5.152E-01	8.498E-01	3.215E-01	4.006E+01	1.585E+01	3.550E+01	6.653E+01
51.60	2.845E+00	4.177E+01	6.979E+00	9.836E-01	-4.014E-02	1.284E+00	-5.080E-01	8.932E-01	3.272E-01	3.972E+01	9.491E+00	3.494E+01	6.857E+01
51.65	2.775E+00	4.199E+01	6.979E+00	1.005E+00	-5.819E-02	1.293E+00	-5.005E-01	9.444E-01	3.316E-01	3.900E+01	3.184E+00	3.455E+01	6.940E+01
51.70	2.812E+00	4.223E+01	6.980E+00	1.031E+00	-7.653E-02	1.304E+00	-4.928E-01	9.988E-01	3.350E-01	3.820E+01	-3.156E+00	3.444E+01	6.970E+01
51.75	2.715E+00	4.250E+01	6.981E+00	1.059E+00	-9.499E-02	1.317E+00	-4.847E-01	1.052E+00	3.381E-01	3.762E+01	-9.281E+00	3.465E+01	7.006E+01
51.80	2.651E+00	4.278E+01	6.982E+00	1.083E+00	-1.133E-01	1.328E+00	-4.760E-01	1.100E+00	3.410E-01	3.767E+01	-1.541E+01	3.516E+01	7.115E+01
51.85	2.500E+00	4.308E+01	6.983E+00	1.102E+00	-1.312E-01	1.332E+00	-4.663E-01	1.144E+00	3.438E-01	3.845E+01	-2.161E+01	3.595E+01	7.313E+01
51.90	2.556E+00	4.340E+01	6.984E+00	1.113E+00	-1.484E-01	1.325E+00	-4.553E-01	1.184E+00	3.463E-01	3.997E+01	-2.782E+01	3.694E+01	7.581E+01
51.95	2.631E+00	4.377E+01	6.986E+00	1.118E+00	-1.651E-01	1.307E+00	-4.428E-01	1.223E+00	3.484E-01	4.187E+01	-3.403E+01	3.810E+01	7.921E+01
52.00	2.647E+00	4.417E+01	6.987E+00	1.118E+00	-1.813E-01	1.281E+00	-4.292E-01	1.264E+00	3.497E-01	4.346E+01	-4.040E+01	3.951E+01	8.307E+01
52.05	2.526E+00	4.463E+01	6.989E+00	1.116E+00	-1.973E-01	1.251E+00	-4.146E-01	1.307E+00	3.504E-01	4.413E+01	-4.669E+01	4.116E+01	8.591E+01
52.10	2.490E+00	4.516E+01	6.991E+00	1.112E+00	-2.133E-01	1.219E+00	-3.995E-01	1.349E+00	3.505E-01	4.387E+01	-5.277E+01	4.303E+01	8.675E+01
52.15	2.577E+00	4.574E+01	6.992E+00	1.109E+00	-2.294E-01	1.190E+00	-3.841E-01	1.384E+00	3.505E-01	4.285E+01	-5.889E+01	4.522E+01	8.578E+01
52.20	2.688E+00	4.636E+01	6.994E+00	1.104E+00	-2.455E-01	1.164E+00	-3.685E-01	1.406E+00	3.508E-01	4.133E+01	-6.479E+01	4.758E+01	8.342E+01
52.25	2.605E+00	4.701E+01	6.995E+00	1.098E+00	-2.613E-01	1.142E+00	-3.526E-01	1.412E+00	3.519E-01	3.987E+01	-7.052E+01	5.005E+01	8.096E+01
52.30	2.502E+00	4.767E+01	6.996E+00	1.091E+00	-2.767E-01	1.123E+00	-3.365E-01	1.400E+00	3.540E-01	3.893E+01	-7.628E+01	5.277E+01	7.946E+01
52.35	2.476E+00	4.833E+01	6.997E+00	1.084E+00	-2.917E-01	1.107E+00	-3.204E-01	1.373E+00	3.567E-01	3.860E+01	-8.196E+01	5.572E+01	7.871E+01
52.40	2.434E+00	4.898E+01	6.998E+00	1.081E+00	-3.066E-01	1.096E+00	-3.044E-01	1.335E+00	3.599E-01	3.866E+01	-8.744E+01	5.885E+01	7.837E+01
52.45	2.559E+00	4.961E+01	6.999E+00	1.084E+00	-3.216E-01	1.090E+00	-2.889E-01	1.290E+00	3.630E-01	3.907E+01	-9.285E+01	6.227E+01	7.861E+01
52.50	2.452E+00	5.023E+01	7.000E+00	1.095E+00	-3.367E-01	1.091E+00	-2.739E-01	1.243E+00	3.660E-01	3.971E+01	-9.819E+01	6.591E+01	7.942E+01
52.55	2.568E+00	5.083E+01	7.000E+00	1.115E+00	-3.520E-01	1.102E+00	-2.597E-01	1.193E+00	3.685E-01	4.036E+01	-1.034E+02	6.960E+01	8.010E+01
52.60	2.598E+00	5.142E+01	7.001E+00	1.143E+00	-3.675E-01	1.124E+00	-2.463E-01	1.143E+00	3.707E-01	4.130E+01	-1.085E+02	7.333E+01	8.017E+01
52.65	2.571E+00	5.199E+01	7.001E+00	1.177E+00	-3.830E-01	1.154E+00	-2.336E-01	1.092E+00	3.724E-01	4.278E+01	-1.136E+02	7.728E+01	7.934E+01
52.70	2.510E+00	5.253E+01	7.001E+00	1.213E+00	-3.983E-01	1.189E+00	-2.213E-01	1.041E+00	3.737E-01	4.500E+01	-1.184E+02	8.153E+01	7.783E+01
52.75	2.404E+00	5.304E+01	7.001E+00	1.247E+00	-4.128E-01	1.225E+00	-2.090E-01	9.923E-01	3.746E-01	4.786E+01	-1.230E+02	8.593E+01	7.660E+01
52.80	2.249E+00	5.351E+01	7.002E+00	1.274E+00	-4.265E-01	1.259E+00	-1.962E-01	9.461E-01	3.748E-01	5.105E+01	-1.275E+02	9.055E+01	7.660E+01
52.85	2.153E+00	5.394E+01	7.002E+00	1.294E+00	-4.393E-01	1.290E+00	-1.830E-01	9.045E-01	3.742E-01	5.404E+01	-1.319E+02	9.540E+01	7.752E+01
52.90	2.180E+00	5.434E+01	7.002E+00	1.307E+00	-4.513E-01	1.317E+00	-1.691E-01	8.688E-01	3.722E-01	5.592E+01	-1.361E+02	1.002E+02	7.844E+01
52.95	2.170E+00	5.470E+01	7.002E+00	1.312E+00	-4.624E-01	1.339E+00	-1.547E-01	8.411E-01	3.688E-01	5.686E+01	-1.401E+02	1.049E+02	7.942E+01
53.00	2.148E+00	5.504E+01	7.002E+00	1.309E+00	-4.727E-01	1.355E+00	-1.396E-01	8.235E-01	3.638E-01	5.593E+01	-1.439E+02	1.101E+02	8.148E+01
53.05	2.193E+00	5.537E+01	7.002E+00	1.296E+00	-4.818E-01	1.364E+00	-1.236E-01	8.166E-01	3.573E-01	5.424E+01	-1.475E+02	1.152E+02	8.429E+01
53.10	2.193E+00	5.569E+01	7.003E+00	1.274E+00	-4.896E-01	1.365E+00	-1.068E-01	8.207E-01	3.492E-01	5.146E+01	-1.508E+02	1.205E+02	8.644E+01
53.15	2.081E+00	5.601E+01	7.003E+00	1.242E+00	-4.960E-01	1.357E+00	-8.932E-02	8.356E-01	3.396E-01	4.865E+01	-1.538E+02	1.259E+02	8.662E+01
53.20	2.186E+00	5.633E+01	7.003E+00	1.200E+00	-5.007E-01	1.343E+00	-7.142E-02	8.604E-01	3.286E-01	4.595E+01	-1.565E+02	1.317E+02	8.514E+01
53.25	1.985E+00	5.664E+01	7.003E+00	1.150E+00	-5.039E-01	1.324E+00	-5.329E-02	8.932E-01	3.164E-01	4.438E+01	-1.592E+02	1.374E+02	8.276E+01
53.30	2.097E+00	5.693E+01	7.003E+00	1.097E+00	-5.058E-01	1.303E+00	-3.512E-02	9.317E-01	3.031E-01	4.289E+01	-1.617E+02	1.433E+02	8.012E+01
53.35	2.078E+00	5.719E+01	7.003E+00	1.045E+00	-5.067E-01	1.279E+00	-1.697E-02	9.737E-01	2.889E-01	4.195E+01	-1.639E+02	1.492E+02	7.735E+01
53.40	2.121E+00	5.741E+01	7.002E+00	9.974E-01	-5.072E-01	1.254E+00	1.155E-03	1.017E+00	2.738E-01	4.123E+01	-1.657E+02	1.552E+02	7.483E+01
53.45	2.010E+00	5.757E+01	7.001E+00	9.581E-01	-5.076E-01	1.227E+00	1.933E-02	1.060E+00	2.580E-01	3.995E+01	-1.673E+02	1.615E+02	7.347E+01
53.50	1.903E+00	5.767E+01	7.001E+00	9.285E-01	-5.081E-01	1.197E+00	3.763E-02	1.099E+00	2.417E-01	3.862E+01	-1.686E+02	1.675E+02	7.365E+01
53.55	2.014E+00	5.772E+01	7.001E+00	9.092E-01	-5.088E-01	1.166E+00	5.607E-02	1.133E+00	2.250E-01	3.718E+01	-1.697E+02	1.735E+02	7.583E+01
53.60	1.925E+00	5.774E+01	7.000E+00	9.008E-01	-5.097E-01	1.134E+00	7.455E-02	1.163E+00	2.082E-01	3.596E+01	-1.707E+02	1.799E+02	7.948E+01
53.65	1.816E+00	5.773E+01	7.000E+00	9.009E-01	-5.111E-01	1.102E+00	9.305E-02	1.188E+00	1.913E-01	3.517E+01	-1.715E+02	1.862E+02	8.252E+01
53.70	1.754E+00	5.772E+01	6.999E+00	9.092E-01	-5.129E-01	1.072E+00	1.115E-01	1.209E+00	1.745E-01	3.463E+01	-1.721E+02	1.923E+02	8.435E+01
53.75	1.870E+00	5.772E+01	6.999E+00	9.247E-01	-5.152E-01	1.045E+00	1.298E-01	1.226E+00	1.581E-01	3.531E+01	-1.726E+02	1.989E+02	8.509E+01
53.80	2.028E+00	5.772E+01	6.999E+00	9.451E-01	-5.178E-01	1.020E+00	1.478E-01	1.240E+00	1.421E-01	3.686E+01	-1.729E+02	2.053E+02	8.425E+01
53.85	1.878E+00	5.773E+01	6.999E+00	9.684E-01	-5.206E-01	9.986E-01	1.654E-01	1.248E+00	1.268E-01	3.896E+01	-1.731E+02	2.116E+02	8.219E+01
53.90	1.922E+00	5.772E+01	6.999E+00	9.929E-01	-5.234E-01	9.788E-01	1.826E-01	1.248E+00	1.122E-01	4.181E+01	-1.732E+02	2.181E+02	7.984E+01
53.95	1.959E+00	5.770E+01	6.998E+00	1.018E+00	-5.261E-01	9.599E-01	1.993E-01	1.238E+00	9.865E-02	4.487E+01	-1.733E+02	2.245E+02	7.782E+01
54.00	2.087E+00	5.766E+01	6.998E+00	1.045E+00	-5.285E-01	9.419E-01	2.156E-01	1.218E+00	8.593E-02	4.734E+01	-1.731E+02	2.308E+02	7.670E+01
54.05	1.929E+00	5.759E+01	6.998E+00	1.075E+00	-5.307E-01	9.265E-01	2.312E-01	1.188E+00	7.392E-02	4.904E+01	-1.727E+02	2.370E+02	7.713E+01
54.10	1.973E+00	5.749E+01	6.997E+00	1.110E+00	-5.326E-01	9.155E-01	2.460E-01	1.149E+00	6.226E-02	4.989E+01	-1.718E+02	2.431E+02	7.823E+01
54.15	1.974E+00	5.738E+01	6.997E+00	1.148E+00	-5.341E-01	9.105E-01	2.596E-01	1.107E+00	5.042E-02	4.989E+01	-1.706E+02	2.490E+02	7.912E+01
54.20	2.208E+00	5.726E+01	6.996E+00	1.188E+00	-5.347E-01	9.122E-01	2.718E-01	1.066E+00	3.808E-02	4.976E+01	-1.690E+02	2.549E+02	8.033E+01
54.25	2.321E+00	5.714E+01	6.996E+00	1.227E+00	-5.341E-01	9.205E-01	2.826E-01	1.030E+00	2.510E-02	5.016E+01	-1.672E+02	2.608E+02	8.203E+01
54.30	2.204E+00	5.703E+01	6.996E+00	1.265E+00	-5.321E-01	9.351E-01	2.921E-01	9.984E-01	1.143E-02	5.105E+01	-1.651E+02	2.667E+02	8.348E+01
54.35	2.211E+00	5.692E+01	6.996E+00	1.299E+00	-5.286E-01	9.556E-01	3.003E-01	9.720E-01	-2.922E-03	5.267E+01	-1.629E+02	2.724E+02	8.417E+01
54.40	1.974E+00	5.684E+01	6.996E+00	1.328E+00	-5.237E-01	9.817E-01	3.076E-01	9.510E-01	-1.784E-02	5.543E+01	-1.605E+02	2.784E+02	8.475E+01
54.45	2.034E+00	5.677E+01	6.997E+00	1.354E+00	-5.175E-01	1.013E+00	3.141E-01	9.354E-01	-3.328E-02	5.882E+01	-1.577E+02	2.842E+02	8.523E+01
54.50	2.002E+00	5.672E+01	6.997E+00	1.375E+00	-5.102E-01	1.049E+00	3.199E-01	9.254E-01	-4.932E-02	6.174E+01	-1.548E+02	2.896E+02	8.513E+01
54.55	2.027E+00	5.669E+01	6.997E+00	1.393E+00	-5.020E-01	1.087E+00	3.251E-01	9.215E-01	-6.593E-02	6.388E+01	-1.516E+02	2.950E+02	8.471E+01
54.60	2.094E+00	5.667E+01	6.997E+00	1.407E+00	-4.932E-01	1.127E+00	3.298E-01	9.235E-01	-8.309E-02	6.501E+01	-1.480E+02	3.004E+02	8.398E+01
54.65	1.952E+00	5.666E+01	6.997E+00	1.416E+00	-4.838E-01	1.167E+00	3.340E-01	9.310E-01	-1.007E-01	6.491E+01	-1.444E+02	3.055E+02	8.337E+01
54.70	1.871E+00	5.666E+01	6.998E+00	1.418E+00	-4.737E-01	1.205E+00	3.379E-01	9.435E-01	-1.186E-01	6.375E+01	-1.406E+02	3.105E+02	8.370E+01
54.75	1.932E+00	5.667E+01	6.998E+00	1.412E+00	-4.629E-01	1.241E+00	3.415E-01	9.602E-01	-1.368E-01	6.220E+01	-1.366E+02	3.155E+02	8.512E+01
54.80	1.973E+00	5.669E+01	6.999E+00	1.397E+00	-4.513E-01	1.274E+00	3.448E-01	9.797E-01	-1.551E-01	6.089E+01	-1.324E+02	3.203E+02	8.728E+01
54.85	2.025E+00	5.673E+01	7.000E+00	1.371E+00	-4.388E-01	1.304E+00	3.476E-01	1.001E+00	-1.732E-01	5.963E+01	-1.281E+02	3.249E+02	9.022E+01
54.90	2.138E+00	5.681E+01	7.001E+00	1.337E+00	-4.252E-01	1.333E+00	3.499E-01	1.023E+00	-1.912E-01	5.923E+01	-1.237E+02	3.294E+02	9.362E+01
54.95	1.972E+00	5.694E+01	7.001E+00	1.295E+00	-4.105E-01	1.358E+00	3.518E-01	1.045E+00	-2.088E-01	5.923E+01	-1.192E+02	3.339E+02	9.625E+01
55.00	2.008E+00	5.712E+01	7.002E+00	1.250E+00	-3.950E-01	1.378E+00	3.534E-01	1.066E+00	-2.260E-01	5.944E+01	-1.145E+02	3.382E+02	9.688E+01
55.05	2.050E+00	5.735E+01	7.003E+00	1.206E+00	-3.787E-01	1.389E+00	3.550E-01	1.085E+00	-2.428E-01	5.939E+01	-1.097E+02	3.424E+02	9.566E+01
55.10	2.009E+00	5.762E+01	7.004E+00	1.166E+00	-3.620E-01	1.388E+00	3.570E-01	1.101E+00	-2.593E-01	5.902E+01	-1.046E+02	3.464E+02	9.337E+01
55.15	2.139E+00	5.791E+01	7.005E+00	1.133E+00	-3.451E-01	1.377E+00	3.594E-01	1.117E+00	-2.758E-01	5.809E+01	-9.940E+01	3.500E+02	9.065E+01
55.20	2.150E+00	5.821E+01	7.005E+00	1.112E+00	-3.284E-01	1.355E+00	3.621E-01	1.136E+00	-2.926E-01	5.633E+01	-9.384E+01	3.532E+02	8.755E+01
55.25	2.304E+00	5.851E+01	7.005E+00	1.100E+00	-3.120E-01	1.324E+00	3.647E-01	1.158E+00	-3.098E-01	5.455E+01	-8.812E+01	3.562E+02	8.415E+01
55.30	2.259E+00	5.878E+01	7.006E+00	1.099E+00	-2.960E-01	1.287E+00	3.670E-01	1.182E+00	-3.272E-01	5.344E+01	-8.228E+01	3.591E+02	8.199E+01
55.35	2.307E+00	5.902E+01	7.006E+00	1.107E+00	-2.803E-01	1.245E+00	3.691E-01	1.210E+00	-3.447E-01	5.297E+01	-7.636E+01	3.620E+02	8.197E+01
55.40	2.304E+00	5.922E+01	7.006E+00	1.123E+00	-2.651E-01	1.200E+00	3.708E-01	1.238E+00	-3.619E-01	5.355E+01	-7.049E+01	3.647E+02	8.361E+01
55.45	2.331E+00	5.940E+01	7.006E+00	1.149E+00	-2.505E-01	1.153E+00	3.722E-01	1.267E+00	-3.787E-01	5.510E+01	-6.454E+01	3.673E+02	8.616E+01
55.50	2.375E+00	5.957E+01	7.006E+00	1.181E+00	-2.367E-01	1.107E+00	3.733E-01	1.293E+00	-3.948E-01	5.737E+01	-5.850E+01	3.696E+02	8.861E+01
55.55	2.426E+00	5.973E+01	7.006E+00	1.220E+00	-2.235E-01	1.064E+00	3.740E-01	1.315E+00	-4.099E-01	5.992E+01	-5.249E+01	3.714E+02	9.012E+01
55.60	2.429E+00	5.990E+01	7.006E+00	1.262E+00	-2.109E-01	1.026E+00	3.740E-01	1.330E+00	-4.237E-01	6.243E+01	-4.653E+01	3.730E+02	9.032E+01
55.65	2.510E+00	6.008E+01	7.006E+00	1.303E+00	-1.988E-01	9.932E-01	3.734E-01	1.335E+00	-4.359E-01	6.476E+01	-4.054E+01	3.745E+02	8.915E+01
55.70	2.467E+00	6.025E+01	7.006E+00	1.340E+00	-1.867E-01	9.660E-01	3.719E-01	1.330E+00	-4.464E-01	6.675E+01	-3.452E+01	3.758E+02	8.683E+01
55.75	2.463E+00	6.040E+01	7.006E+00	1.370E+00	-1.743E-01	9.420E-01	3.698E-01	1.315E+00	-4.554E-01	6.829E+01	-2.854E+01	3.770E+02	8.411E+01
55.80	2.515E+00	6.053E+01	7.006E+00	1.390E+00	-1.613E-01	9.193E-01	3.669E-01	1.291E+00	-4.631E-01	6.932E+01	-2.263E+01	3.778E+02	8.226E+01
55.85	2.420E+00	6.062E+01	7.005E+00	1.400E+00	-1.476E-01	8.976E-01	3.632E-01	1.261E+00	-4.696E-01	6.957E+01	-1.662E+01	3.784E+02	8.199E+01
55.90	2.430E+00	6.069E+01	7.005E+00	1.401E+00	-1.331E-01	8.777E-01	3.584E-01	1.223E+00	-4.751E-01	6.890E+01	-1.053E+01	3.786E+02	8.255E+01
55.95	2.526E+00	6.072E+01	7.004E+00	1.393E+00	-1.178E-01	8.616E-01	3.522E-01	1.181E+00	-4.797E-01	6.739E+01	-4.500E+00	3.785E+02	8.301E+01
56.00	2.701E+00	6.073E+01	7.004E+00	1.376E+00	-1.016E-01	8.517E-01	3.442E-01	1.133E+00	-4.834E-01	6.534E+01	1.651E+00	3.782E+02	8.291E+01
56.05	2.684E+00	6.071E+01	7.003E+00	1.350E+00	-8.425E-02	8.495E-01	3.345E-01	1.080E+00	-4.861E-01	6.293E+01	8.018E+00	3.778E+02	8.244E+01
56.10	2.518E+00	6.068E+01	7.003E+00	1.318E+00	-6.575E-02	8.557E-01	3.232E-01	1.024E+00	-4.879E-01	6.093E+01	1.439E+01	3.773E+02	8.163E+01
56.15	2.551E+00	6.061E+01	7.002E+00	1.281E+00	-4.617E-02	8.690E-01	3.106E-01	9.688E-01	-4.891E-01	5.941E+01	2.081E+01	3.766E+02	8.035E+01
56.20	2.696E+00	6.052E+01	7.001E+00	1.244E+00	-2.584E-02	8.875E-01	2.968E-01	9.208E-01	-4.903E-01	5.856E+01	2.730E+01	3.756E+02	7.848E+01
56.25	2.815E+00	6.039E+01	7.000E+00	1.208E+00	-5.172E-03	9.094E-01	2.821E-01	8.851E-01	-4.920E-01	5.815E+01	3.377E+01	3.743E+02	7.589E+01
56.30	2.768E+00	6.022E+01	6.999E+00	1.178E+00	1.541E-02	9.332E-01	2.668E-01	8.647E-01	-4.946E-01	5.803E+01	4.008E+01	3.729E+02	7.314E+01
56.35	2.745E+00	5.999E+01	6.997E+00	1.153E+00	3.557E-02	9.585E-01	2.511E-01	8.596E-01	-4.980E-01	5.831E+01	4.644E+01	3.714E+02	7.089E+01
56.40	2.710E+00	5.971E+01	6.996E+00	1.134E+00	5.505E-02	9.845E-01	2.352E-01	8.673E-01	-5.022E-01	5.892E+01	5.265E+01	3.697E+02	6.936E+01
56.45	2.697E+00	5.937E+01	6.995E+00	1.122E+00	7.365E-02	1.011E+00	2.194E-01	8.823E-01	-5.067E-01	5.954E+01	5.876E+01	3.679E+02	6.899E+01
56.50	2.645E+00	5.899E+01	6.993E+00	1.116E+00	9.123E-02	1.037E+00	2.039E-01	8.981E-01	-5.112E-01	5.988E+01	6.498E+01	3.658E+02	7.018E+01
56.55	2.598E+00	5.856E+01	6.992E+00	1.114E+00	1.079E-01	1.060E+00	1.889E-01	9.117E-01	-5.152E-01	6.004E+01	7.104E+01	3.634E+02	7.260E+01
56.60	2.605E+00	5.811E+01	6.992E+00	1.114E+00	1.237E-01	1.081E+00	1.743E-01	9.234E-01	-5.187E-01	6.018E+01	7.685E+01	3.607E+02	7.610E+01
56.65	2.465E+00	5.766E+01	6.991E+00	1.115E+00	1.388E-01	1.099E+00	1.601E-01	9.370E-01	-5.217E-01	6.010E+01	8.261E+01	3.577E+02	8.040E+01
56.70	2.534E+00	5.722E+01	6.991E+00	1.113E+00	1.535E-01	1.114E+00	1.461E-01	9.576E-01	-5.246E-01	5.998E+01	8.824E+01	3.545E+02	8.339E+01
56.75	2.493E+00	5.682E+01	6.990E+00	1.108E+00	1.678E-01	1.125E+00	1.321E-01	9.881E-01	-5.275E-01	5.997E+01	9.357E+01	3.514E+02	8.314E+01
56.80	2.568E+00	5.646E+01	6.990E+00	1.100E+00	1.818E-01	1.130E+00	1.179E-01	1.028E+00	-5.303E-01	5.973E+01	9.893E+01	3.481E+02	8.063E+01
56.85	2.513E+00	5.611E+01	6.989E+00	1.089E+00	1.958E-01	1.129E+00	1.038E-01	1.074E+00	-5.329E-01	5.905E+01	1.043E+02	3.445E+02	7.749E+01
56.90	2.543E+00	5.577E+01	6.989E+00	1.077E+00	2.098E-01	1.119E+00	8.956E-02	1.123E+00	-5.347E-01	5.836E+01	1.093E+02	3.408E+02	7.468E+01
56.95	2.501E+00	5.543E+01	6.989E+00	1.065E+00	2.238E-01	1.101E+00	7.527E-02	1.169E+00	-5.357E-01	5.736E+01	1.142E+02	3.368E+02	7.332E+01
57.00	2.590E+00	5.509E+01	6.988E+00	1.053E+00	2.377E-01	1.076E+00	6.085E-02	1.211E+00	-5.355E-01	5.617E+01	1.191E+02	3.323E+02	7.384E+01
57.05	2.561E+00	5.474E+01	6.988E+00	1.042E+00	2.513E-01	1.047E+00	4.611E-02	1.247E+00	-5.342E-01	5.524E+01	1.238E+02	3.278E+02	7.602E+01
57.10	2.439E+00	5.441E+01	6.989E+00	1.031E+00	2.645E-01	1.017E+00	3.096E-02	1.280E+00	-5.319E-01	5.458E+01	1.284E+02	3.233E+02	7.973E+01
57.15	2.519E+00	5.410E+01	6.989E+00	1.023E+00	2.772E-01	9.886E-01	1.540E-02	1.312E+00	-5.288E-01	5.390E+01	1.329E+02	3.185E+02	8.386E+01
57.20	2.395E+00	5.384E+01	6.989E+00	1.017E+00	2.892E-01	9.632E-01	-5.897E-04	1.344E+00	-5.253E-01	5.349E+01	1.373E+02	3.138E+02	8.634E+01
57.25	2.389E+00	5.364E+01	6.989E+00	1.016E+00	3.005E-01	9.406E-01	-1.680E-02	1.375E+00	-5.212E-01	5.333E+01	1.415E+02	3.090E+02	8.648E+01
57.30	2.615E+00	5.349E+01	6.990E+00	1.021E+00	3.109E-01	9.201E-01	-3.288E-02	1.404E+00	-5.166E-01	5.306E+01	1.454E+02	3.038E+02	8.490E+01
57.35	2.740E+00	5.339E+01	6.990E+00	1.032E+00	3.203E-01	9.017E-01	-4.870E-02	1.428E+00	-5.113E-01	5.273E+01	1.491E+02	2.985E+02	8.178E+01
57.40	2.785E+00	5.331E+01	6.990E+00	1.051E+00	3.286E-01	8.867E-01	-6.430E-02	1.443E+00	-5.049E-01	5.254E+01	1.524E+02	2.931E+02	7.770E+01
57.45	2.848E+00	5.324E+01	6.990E+00	1.075E+00	3.356E-01	8.771E-01	-7.976E-02	1.444E+00	-4.973E-01	5.234E+01	1.556E+02	2.875E+02	7.428E+01
57.50	2.971E+00	5.317E+01	6.990E+00	1.103E+00	3.413E-01	8.748E-01	-9.528E-02	1.431E+00	-4.882E-01	5.236E+01	1.586E+02	2.818E+02	7.306E+01
57.55	2.943E+00	5.308E+01	6.991E+00	1.133E+00	3.456E-01	8.828E-01	-1.112E-01	1.404E+00	-4.774E-01	5.292E+01	1.612E+02	2.761E+02	7.484E+01
57.60	2.934E+00	5.299E+01	6.991E+00	1.166E+00	3.489E-01	9.026E-01	-1.278E-01	1.366E+00	-4.651E-01	5.377E+01	1.636E+02	2.702E+02	7.920E+01
57.65	2.925E+00	5.291E+01	6.992E+00	1.201E+00	3.509E-01	9.348E-01	-1.454E-01	1.324E+00	-4.517E-01	5.471E+01	1.657E+02	2.642E+02	8.410E+01
57.70	2.882E+00	5.288E+01	6.992E+00	1.238E+00	3.519E-01	9.781E-01	-1.642E-01	1.282E+00	-4.373E-01	5.579E+01	1.675E+02	2.583E+02	8.742E+01
57.75	2.849E+00	5.290E+01	6.993E+00	1.278E+00	3.518E-01	1.029E+00	-1.841E-01	1.241E+00	-4.222E-01	5.689E+01	1.690E+02	2.522E+02	8.921E+01
57.80	2.756E+00	5.297E+01	6.994E+00	1.318E+00	3.512E-01	1.085E+00	-2.048E-01	1.203E+00	-4.063E-01	5.769E+01	1.703E+02	2.460E+02	9.029E+01
57.85	2.668E+00	5.310E+01	6.995E+00	1.356E+00	3.504E-01	1.142E+00	-2.258E-01	1.167E+00	-3.895E-01	5.839E+01	1.714E+02	2.397E+02	9.090E+01
57.90	2.556E+00	5.329E+01	6.996E+00	1.386E+00	3.501E-01	1.195E+00	-2.468E-01	1.133E+00	-3.718E-01	5.940E+01	1.723E+02	2.335E+02	9.101E+01
57.95	2.552E+00	5.352E+01	6.998E+00	1.406E+00	3.503E-01	1.242E+00	-2.676E-01	1.104E+00	-3.537E-01	6.062E+01	1.730E+02	2.272E+02	9.083E+01
58.00	2.533E+00	5.380E+01	6.999E+00	1.416E+00	3.513E-01	1.283E+00	-2.882E-01	1.080E+00	-3.355E-01	6.187E+01	1.736E+02	2.209E+02	9.064E+01
58.05	2.459E+00	5.411E+01	7.000E+00	1.414E+00	3.530E-01	1.320E+00	-3.085E-01	1.066E+00	-3.176E-01	6.256E+01	1.739E+02	2.146E+02	9.104E+01
58.10	2.491E+00	5.446E+01	7.002E+00	1.403E+00	3.551E-01	1.354E+00	-3.285E-01	1.063E+00	-3.007E-01	6.238E+01	1.741E+02	2.082E+02	9.195E+01
58.15	2.499E+00	5.484E+01	7.003E+00	1.382E+00	3.575E-01	1.389E+00	-3.484E-01	1.075E+00	-2.851E-01	6.133E+01	1.741E+02	2.019E+02	9.273E+01
58.20	2.438E+00	5.525E+01	7.004E+00	1.353E+00	3.601E-01	1.424E+00	-3.679E-01	1.099E+00	-2.709E-01	5.963E+01	1.740E+02	1.958E+02	9.297E+01
58.25	2.407E+00	5.570E+01	7.005E+00	1.314E+00	3.628E-01	1.458E+00	-3.865E-01	1.133E+00	-2.580E-01	5.755E+01	1.737E+02	1.896E+02	9.310E+01
58.30	2.434E+00	5.616E+01	7.007E+00	1.268E+00	3.658E-01	1.487E+00	-4.038E-01	1.172E+00	-2.459E-01	5.550E+01	1.732E+02	1.835E+02	9.385E+01
58.35	2.541E+00	5.665E+01	7.008E+00	1.215E+00	3.689E-01	1.508E+00	-4.191E-01	1.210E+00	-2.343E-01	5.366E+01	1.725E+02	1.774E+02	9.551E+01
58.40	2.519E+00	5.717E+01	7.009E+00	1.157E+00	3.718E-01	1.514E+00	-4.320E-01	1.246E+00	-2.230E-01	5.187E+01	1.714E+02	1.714E+02	9.736E+01
58.45	2.568E+00	5.771E+01	7.010E+00	1.097E+00	3.741E-01	1.503E+00	-4.422E-01	1.277E+00	-2.116E-01	5.010E+01	1.701E+02	1.654E+02	9.809E+01
58.50	2.721E+00	5.828E+01	7.011E+00	1.038E+00	3.756E-01	1.476E+00	-4.500E-01	1.302E+00	-2.000E-01	4.843E+01	1.685E+02	1.595E+02	9.730E+01
58.55	2.746E+00	5.886E+01	7.012E+00	9.803E-01	3.759E-01	1.436E+00	-4.559E-01	1.320E+00	-1.880E-01	4.667E+01	1.666E+02	1.536E+02	9.577E+01
58.60	2.642E+00	5.945E+01	7.013E+00	9.272E-01	3.748E-01	1.391E+00	-4.606E-01	1.332E+00	-1.751E-01	4.495E+01	1.644E+02	1.478E+02	9.369E+01
58.65	2.800E+00	6.003E+01	7.014E+00	8.794E-01	3.722E-01	1.343E+00	-4.648E-01	1.337E+00	-1.612E-01	4.354E+01	1.619E+02	1.422E+02	9.130E+01
58.70	2.703E+00	6.059E+01	7.014E+00	8.380E-01	3.681E-01	1.296E+00	-4.689E-01	1.334E+00	-1.461E-01	4.236E+01	1.592E+02	1.365E+02	8.906E+01
58.75	2.812E+00	6.111E+01	7.014E+00	8.037E-01	3.624E-01	1.249E+00	-4.732E-01	1.322E+00	-1.298E-01	4.184E+01	1.562E+02	1.311E+02	8.684E+01
[...]
622.90	4.100E+00	1.743E+02	7.168E+00	1.411E+00	3.250E-01	9.904E-01	-1.909E-01	1.104E+00	-4.034E-01	7.476E+01	1.636E+02	2.611E+02	2.326E+02
622.95	4.021E+00	1.737E+02	7.167E+00	1.418E+00	3.298E-01	9.859E-01	-2.068E-01	1.148E+00	-3.954E-01	7.569E+01	1.653E+02	2.548E+02	2.319E+02
623.00	4.025E+00	1.732E+02	7.166E+00	1.426E+00	3.341E-01	9.825E-01	-2.225E-01	1.196E+00	-3.873E-01	7.591E+01	1.668E+02	2.485E+02	2.323E+02
623.05	3.980E+00	1.726E+02	7.165E+00	1.435E+00	3.375E-01	9.802E-01	-2.381E-01	1.245E+00	-3.789E-01	7.561E+01	1.681E+02	2.420E+02	2.333E+02
623.10	3.908E+00	1.720E+02	7.164E+00	1.445E+00	3.401E-01	9.798E-01	-2.535E-01	1.291E+00	-3.698E-01	7.489E+01	1.691E+02	2.355E+02	2.347E+02
623.15	4.091E+00	1.715E+02	7.163E+00	1.455E+00	3.417E-01	9.832E-01	-2.688E-01	1.333E+00	-3.598E-01	7.398E+01	1.698E+02	2.290E+02	2.357E+02
623.20	4.094E+00	1.709E+02	7.162E+00	1.464E+00	3.423E-01	9.921E-01	-2.842E-01	1.369E+00	-3.488E-01	7.327E+01	1.702E+02	2.227E+02	2.360E+02
623.25	4.014E+00	1.704E+02	7.161E+00	1.470E+00	3.420E-01	1.007E+00	-2.997E-01	1.400E+00	-3.367E-01	7.284E+01	1.703E+02	2.163E+02	2.353E+02
623.30	4.297E+00	1.699E+02	7.161E+00	1.473E+00	3.410E-01	1.028E+00	-3.155E-01	1.423E+00	-3.236E-01	7.271E+01	1.703E+02	2.100E+02	2.340E+02
623.35	4.447E+00	1.693E+02	7.160E+00	1.473E+00	3.394E-01	1.054E+00	-3.315E-01	1.435E+00	-3.092E-01	7.270E+01	1.700E+02	2.037E+02	2.322E+02
623.40	4.447E+00	1.688E+02	7.160E+00	1.470E+00	3.374E-01	1.084E+00	-3.477E-01	1.434E+00	-2.934E-01	7.327E+01	1.693E+02	1.974E+02	2.312E+02
623.45	4.483E+00	1.683E+02	7.160E+00	1.465E+00	3.352E-01	1.114E+00	-3.637E-01	1.421E+00	-2.762E-01	7.362E+01	1.682E+02	1.913E+02	2.325E+02
623.50	4.337E+00	1.678E+02	7.159E+00	1.461E+00	3.327E-01	1.144E+00	-3.796E-01	1.397E+00	-2.578E-01	7.315E+01	1.670E+02	1.849E+02	2.348E+02
623.55	4.381E+00	1.674E+02	7.159E+00	1.458E+00	3.298E-01	1.175E+00	-3.954E-01	1.363E+00	-2.385E-01	7.235E+01	1.656E+02	1.786E+02	2.357E+02
623.60	4.382E+00	1.670E+02	7.158E+00	1.456E+00	3.266E-01	1.206E+00	-4.112E-01	1.324E+00	-2.186E-01	7.071E+01	1.644E+02	1.724E+02	2.349E+02
623.65	4.265E+00	1.666E+02	7.158E+00	1.455E+00	3.232E-01	1.239E+00	-4.269E-01	1.282E+00	-1.986E-01	6.863E+01	1.630E+02	1.659E+02	2.329E+02
623.70	4.229E+00	1.662E+02	7.158E+00	1.453E+00	3.196E-01	1.273E+00	-4.425E-01	1.242E+00	-1.785E-01	6.673E+01	1.612E+02	1.596E+02	2.302E+02
623.75	4.186E+00	1.658E+02	7.157E+00	1.449E+00	3.159E-01	1.306E+00	-4.579E-01	1.203E+00	-1.585E-01	6.515E+01	1.594E+02	1.538E+02	2.280E+02
623.80	4.314E+00	1.654E+02	7.157E+00	1.442E+00	3.121E-01	1.336E+00	-4.727E-01	1.168E+00	-1.386E-01	6.385E+01	1.572E+02	1.478E+02	2.266E+02
623.85	4.410E+00	1.650E+02	7.156E+00	1.432E+00	3.079E-01	1.360E+00	-4.866E-01	1.140E+00	-1.193E-01	6.293E+01	1.548E+02	1.420E+02	2.252E+02
623.90	4.488E+00	1.646E+02	7.155E+00	1.417E+00	3.031E-01	1.375E+00	-4.991E-01	1.119E+00	-1.005E-01	6.221E+01	1.521E+02	1.363E+02	2.240E+02
623.95	4.493E+00	1.642E+02	7.155E+00	1.400E+00	2.974E-01	1.381E+00	-5.101E-01	1.105E+00	-8.238E-02	6.196E+01	1.492E+02	1.309E+02	2.236E+02
624.00	4.456E+00	1.638E+02	7.155E+00	1.380E+00	2.909E-01	1.383E+00	-5.197E-01	1.099E+00	-6.483E-02	6.098E+01	1.461E+02	1.252E+02	2.257E+02
624.05	4.523E+00	1.634E+02	7.154E+00	1.358E+00	2.836E-01	1.383E+00	-5.281E-01	1.101E+00	-4.774E-02	6.043E+01	1.424E+02	1.197E+02	2.289E+02
624.10	4.629E+00	1.630E+02	7.154E+00	1.336E+00	2.751E-01	1.384E+00	-5.356E-01	1.110E+00	-3.110E-02	6.021E+01	1.387E+02	1.148E+02	2.311E+02
624.15	4.631E+00	1.627E+02	7.154E+00	1.313E+00	2.658E-01	1.386E+00	-5.422E-01	1.126E+00	-1.509E-02	5.903E+01	1.347E+02	1.097E+02	2.321E+02
624.20	4.657E+00	1.624E+02	7.154E+00	1.292E+00	2.556E-01	1.388E+00	-5.482E-01	1.148E+00	3.681E-04	5.734E+01	1.303E+02	1.045E+02	2.317E+02
624.25	4.515E+00	1.621E+02	7.154E+00	1.273E+00	2.448E-01	1.391E+00	-5.534E-01	1.173E+00	1.549E-02	5.580E+01	1.262E+02	9.994E+01	2.303E+02
624.30	4.601E+00	1.618E+02	7.155E+00	1.257E+00	2.337E-01	1.392E+00	-5.577E-01	1.201E+00	3.036E-02	5.378E+01	1.216E+02	9.522E+01	2.308E+02
624.35	4.597E+00	1.616E+02	7.155E+00	1.244E+00	2.225E-01	1.392E+00	-5.613E-01	1.231E+00	4.485E-02	5.159E+01	1.167E+02	9.041E+01	2.314E+02
624.40	4.579E+00	1.614E+02	7.154E+00	1.232E+00	2.109E-01	1.391E+00	-5.645E-01	1.263E+00	5.886E-02	4.993E+01	1.120E+02	8.614E+01	2.300E+02
624.45	4.611E+00	1.613E+02	7.154E+00	1.221E+00	1.993E-01	1.392E+00	-5.675E-01	1.296E+00	7.233E-02	4.878E+01	1.071E+02	8.202E+01	2.279E+02
624.50	4.530E+00	1.611E+02	7.155E+00	1.209E+00	1.876E-01	1.393E+00	-5.702E-01	1.330E+00	8.524E-02	4.814E+01	1.022E+02	7.808E+01	2.266E+02
624.55	4.525E+00	1.610E+02	7.155E+00	1.195E+00	1.759E-01	1.395E+00	-5.725E-01	1.363E+00	9.773E-02	4.811E+01	9.685E+01	7.431E+01	2.272E+02
624.60	4.629E+00	1.608E+02	7.155E+00	1.181E+00	1.639E-01	1.400E+00	-5.744E-01	1.395E+00	1.098E-01	4.857E+01	9.173E+01	7.096E+01	2.286E+02
624.65	4.505E+00	1.607E+02	7.156E+00	1.166E+00	1.515E-01	1.404E+00	-5.756E-01	1.425E+00	1.215E-01	4.944E+01	8.614E+01	6.768E+01	2.305E+02
624.70	4.542E+00	1.606E+02	7.156E+00	1.154E+00	1.385E-01	1.407E+00	-5.758E-01	1.452E+00	1.331E-01	4.903E+01	8.043E+01	6.455E+01	2.334E+02
624.75	4.602E+00	1.606E+02	7.156E+00	1.145E+00	1.244E-01	1.408E+00	-5.749E-01	1.475E+00	1.445E-01	4.880E+01	7.479E+01	6.185E+01	2.345E+02
624.80	4.641E+00	1.606E+02	7.157E+00	1.141E+00	1.094E-01	1.406E+00	-5.728E-01	1.494E+00	1.560E-01	4.783E+01	6.896E+01	5.928E+01	2.351E+02
624.85	4.730E+00	1.606E+02	7.158E+00	1.138E+00	9.342E-02	1.399E+00	-5.692E-01	1.508E+00	1.676E-01	4.681E+01	6.271E+01	5.681E+01	2.355E+02
624.90	4.630E+00	1.607E+02	7.158E+00	1.136E+00	7.667E-02	1.389E+00	-5.642E-01	1.515E+00	1.794E-01	4.630E+01	5.659E+01	5.470E+01	2.350E+02
624.95	4.502E+00	1.608E+02	7.159E+00	1.133E+00	5.940E-02	1.374E+00	-5.579E-01	1.516E+00	1.916E-01	4.640E+01	5.024E+01	5.278E+01	2.341E+02
625.00	4.471E+00	1.609E+02	7.160E+00	1.125E+00	4.188E-02	1.354E+00	-5.504E-01	1.511E+00	2.040E-01	4.742E+01	4.363E+01	5.108E+01	2.333E+02
625.05	4.469E+00	1.610E+02	7.161E+00	1.115E+00	2.426E-02	1.330E+00	-5.418E-01	1.501E+00	2.165E-01	4.895E+01	3.698E+01	4.970E+01	2.332E+02
625.10	4.444E+00	1.612E+02	7.161E+00	1.102E+00	6.632E-03	1.304E+00	-5.325E-01	1.489E+00	2.287E-01	5.047E+01	3.022E+01	4.861E+01	2.336E+02
625.15	4.509E+00	1.614E+02	7.162E+00	1.088E+00	-1.103E-02	1.279E+00	-5.227E-01	1.479E+00	2.404E-01	5.157E+01	2.349E+01	4.773E+01	2.339E+02
625.20	4.302E+00	1.616E+02	7.162E+00	1.074E+00	-2.868E-02	1.253E+00	-5.128E-01	1.470E+00	2.510E-01	5.171E+01	1.678E+01	4.703E+01	2.335E+02
625.25	4.335E+00	1.618E+02	7.162E+00	1.061E+00	-4.618E-02	1.228E+00	-5.027E-01	1.465E+00	2.607E-01	5.096E+01	1.022E+01	4.649E+01	2.328E+02
625.30	4.239E+00	1.620E+02	7.163E+00	1.048E+00	-6.324E-02	1.203E+00	-4.924E-01	1.461E+00	2.698E-01	4.963E+01	3.708E+00	4.614E+01	2.320E+02
625.35	4.234E+00	1.622E+02	7.163E+00	1.033E+00	-7.960E-02	1.179E+00	-4.819E-01	1.456E+00	2.785E-01	4.806E+01	-2.821E+00	4.603E+01	2.315E+02
625.40	4.164E+00	1.624E+02	7.163E+00	1.014E+00	-9.513E-02	1.159E+00	-4.713E-01	1.447E+00	2.872E-01	4.696E+01	-9.306E+00	4.618E+01	2.306E+02
625.45	4.109E+00	1.626E+02	7.163E+00	9.914E-01	-1.099E-01	1.146E+00	-4.609E-01	1.434E+00	2.958E-01	4.617E+01	-1.567E+01	4.662E+01	2.289E+02
625.50	4.073E+00	1.627E+02	7.163E+00	9.672E-01	-1.241E-01	1.138E+00	-4.507E-01	1.419E+00	3.043E-01	4.580E+01	-2.201E+01	4.733E+01	2.268E+02
625.55	4.217E+00	1.629E+02	7.163E+00	9.434E-01	-1.380E-01	1.140E+00	-4.411E-01	1.404E+00	3.121E-01	4.572E+01	-2.828E+01	4.828E+01	2.249E+02
625.60	4.128E+00	1.630E+02	7.162E+00	9.229E-01	-1.518E-01	1.152E+00	-4.319E-01	1.393E+00	3.191E-01	4.572E+01	-3.453E+01	4.942E+01	2.234E+02
625.65	4.030E+00	1.630E+02	7.161E+00	9.082E-01	-1.660E-01	1.172E+00	-4.231E-01	1.386E+00	3.251E-01	4.536E+01	-4.069E+01	5.079E+01	2.219E+02
625.70	3.939E+00	1.630E+02	7.161E+00	9.004E-01	-1.807E-01	1.202E+00	-4.146E-01	1.384E+00	3.301E-01	4.473E+01	-4.684E+01	5.242E+01	2.205E+02
625.75	3.726E+00	1.630E+02	7.160E+00	8.997E-01	-1.961E-01	1.238E+00	-4.061E-01	1.383E+00	3.343E-01	4.406E+01	-5.292E+01	5.429E+01	2.194E+02
625.80	3.833E+00	1.629E+02	7.159E+00	9.052E-01	-2.121E-01	1.277E+00	-3.973E-01	1.381E+00	3.379E-01	4.360E+01	-5.890E+01	5.635E+01	2.195E+02
625.85	3.878E+00	1.628E+02	7.158E+00	9.150E-01	-2.286E-01	1.318E+00	-3.879E-01	1.379E+00	3.410E-01	4.367E+01	-6.491E+01	5.865E+01	2.213E+02
625.90	4.071E+00	1.626E+02	7.158E+00	9.277E-01	-2.453E-01	1.356E+00	-3.775E-01	1.378E+00	3.433E-01	4.436E+01	-7.088E+01	6.114E+01	2.241E+02
625.95	3.933E+00	1.625E+02	7.157E+00	9.425E-01	-2.623E-01	1.390E+00	-3.660E-01	1.378E+00	3.449E-01	4.534E+01	-7.676E+01	6.380E+01	2.268E+02
626.00	3.894E+00	1.623E+02	7.157E+00	9.591E-01	-2.793E-01	1.420E+00	-3.534E-01	1.382E+00	3.457E-01	4.658E+01	-8.262E+01	6.665E+01	2.285E+02
626.05	3.911E+00	1.622E+02	7.157E+00	9.782E-01	-2.963E-01	1.443E+00	-3.397E-01	1.390E+00	3.457E-01	4.778E+01	-8.840E+01	6.972E+01	2.290E+02
626.10	3.865E+00	1.620E+02	7.156E+00	1.001E+00	-3.133E-01	1.457E+00	-3.249E-01	1.399E+00	3.451E-01	4.847E+01	-9.407E+01	7.301E+01	2.284E+02
626.15	4.036E+00	1.619E+02	7.156E+00	1.026E+00	-3.304E-01	1.460E+00	-3.090E-01	1.409E+00	3.440E-01	4.828E+01	-9.954E+01	7.648E+01	2.268E+02
626.20	4.112E+00	1.617E+02	7.156E+00	1.052E+00	-3.473E-01	1.451E+00	-2.921E-01	1.416E+00	3.425E-01	4.786E+01	-1.048E+02	8.008E+01	2.245E+02
626.25	4.105E+00	1.616E+02	7.155E+00	1.076E+00	-3.638E-01	1.430E+00	-2.744E-01	1.419E+00	3.408E-01	4.762E+01	-1.100E+02	8.383E+01	2.222E+02
626.30	4.193E+00	1.614E+02	7.155E+00	1.097E+00	-3.797E-01	1.396E+00	-2.558E-01	1.417E+00	3.389E-01	4.765E+01	-1.151E+02	8.771E+01	2.213E+02
626.35	4.068E+00	1.612E+02	7.154E+00	1.115E+00	-3.948E-01	1.353E+00	-2.364E-01	1.412E+00	3.368E-01	4.798E+01	-1.202E+02	9.188E+01	2.214E+02
626.40	3.958E+00	1.610E+02	7.154E+00	1.130E+00	-4.091E-01	1.302E+00	-2.164E-01	1.405E+00	3.344E-01	4.848E+01	-1.250E+02	9.627E+01	2.213E+02
626.45	3.843E+00	1.608E+02	7.153E+00	1.145E+00	-4.227E-01	1.246E+00	-1.960E-01	1.395E+00	3.314E-01	4.902E+01	-1.296E+02	1.008E+02	2.207E+02
626.50	3.850E+00	1.606E+02	7.152E+00	1.160E+00	-4.357E-01	1.187E+00	-1.753E-01	1.383E+00	3.279E-01	4.936E+01	-1.340E+02	1.056E+02	2.194E+02
626.55	3.908E+00	1.603E+02	7.151E+00	1.177E+00	-4.482E-01	1.127E+00	-1.544E-01	1.369E+00	3.235E-01	4.936E+01	-1.382E+02	1.104E+02	2.174E+02
626.60	3.847E+00	1.600E+02	7.150E+00	1.194E+00	-4.602E-01	1.070E+00	-1.333E-01	1.354E+00	3.183E-01	4.907E+01	-1.421E+02	1.152E+02	2.157E+02
626.65	3.805E+00	1.597E+02	7.149E+00	1.213E+00	-4.716E-01	1.019E+00	-1.123E-01	1.338E+00	3.123E-01	4.916E+01	-1.460E+02	1.203E+02	2.143E+02
626.70	3.887E+00	1.593E+02	7.148E+00	1.233E+00	-4.828E-01	9.755E-01	-9.148E-02	1.323E+00	3.053E-01	4.952E+01	-1.497E+02	1.256E+02	2.115E+02
626.75	3.936E+00	1.590E+02	7.146E+00	1.254E+00	-4.937E-01	9.421E-01	-7.098E-02	1.310E+00	2.973E-01	5.010E+01	-1.530E+02	1.309E+02	2.083E+02
626.80	3.970E+00	1.585E+02	7.146E+00	1.273E+00	-5.042E-01	9.195E-01	-5.076E-02	1.298E+00	2.887E-01	5.132E+01	-1.563E+02	1.365E+02	2.081E+02
626.85	3.838E+00	1.580E+02	7.145E+00	1.292E+00	-5.142E-01	9.091E-01	-3.109E-02	1.286E+00	2.798E-01	5.303E+01	-1.596E+02	1.423E+02	2.104E+02
626.90	3.840E+00	1.575E+02	7.143E+00	1.312E+00	-5.240E-01	9.115E-01	-1.240E-02	1.272E+00	2.704E-01	5.435E+01	-1.625E+02	1.482E+02	2.118E+02
626.95	3.828E+00	1.570E+02	7.142E+00	1.335E+00	-5.339E-01	9.272E-01	5.105E-03	1.256E+00	2.606E-01	5.521E+01	-1.652E+02	1.537E+02	2.119E+02
627.00	3.953E+00	1.565E+02	7.141E+00	1.360E+00	-5.435E-01	9.553E-01	2.135E-02	1.240E+00	2.507E-01	5.571E+01	-1.677E+02	1.597E+02	2.122E+02
627.05	3.935E+00	1.559E+02	7.140E+00	1.388E+00	-5.526E-01	9.937E-01	3.645E-02	1.226E+00	2.408E-01	5.569E+01	-1.699E+02	1.658E+02	2.127E+02
627.10	3.803E+00	1.554E+02	7.139E+00	1.419E+00	-5.611E-01	1.038E+00	5.057E-02	1.214E+00	2.308E-01	5.547E+01	-1.719E+02	1.717E+02	2.132E+02
627.15	3.837E+00	1.549E+02	7.139E+00	1.449E+00	-5.688E-01	1.086E+00	6.364E-02	1.205E+00	2.207E-01	5.586E+01	-1.736E+02	1.779E+02	2.128E+02
627.20	3.757E+00	1.544E+02	7.138E+00	1.476E+00	-5.753E-01	1.135E+00	7.568E-02	1.196E+00	2.105E-01	5.685E+01	-1.750E+02	1.843E+02	2.115E+02
627.25	3.740E+00	1.538E+02	7.137E+00	1.502E+00	-5.808E-01	1.185E+00	8.686E-02	1.185E+00	2.003E-01	5.820E+01	-1.763E+02	1.905E+02	2.110E+02
627.30	3.740E+00	1.533E+02	7.137E+00	1.525E+00	-5.852E-01	1.234E+00	9.735E-02	1.168E+00	1.904E-01	6.027E+01	-1.774E+02	1.968E+02	2.122E+02
627.35	3.736E+00	1.529E+02	7.137E+00	1.548E+00	-5.886E-01	1.283E+00	1.072E-01	1.144E+00	1.806E-01	6.233E+01	-1.783E+02	2.035E+02	2.139E+02
627.40	3.845E+00	1.524E+02	7.136E+00	1.570E+00	-5.911E-01	1.332E+00	1.167E-01	1.114E+00	1.706E-01	6.382E+01	-1.786E+02	2.097E+02	2.150E+02
627.45	3.859E+00	1.520E+02	7.137E+00	1.588E+00	-5.924E-01	1.378E+00	1.260E-01	1.081E+00	1.599E-01	6.458E+01	-1.786E+02	2.160E+02	2.163E+02
627.50	3.758E+00	1.516E+02	7.137E+00	1.600E+00	-5.921E-01	1.422E+00	1.354E-01	1.051E+00	1.483E-01	6.502E+01	-1.782E+02	2.226E+02	2.177E+02
627.55	3.715E+00	1.512E+02	7.137E+00	1.602E+00	-5.899E-01	1.460E+00	1.449E-01	1.025E+00	1.351E-01	6.533E+01	-1.775E+02	2.289E+02	2.181E+02
627.60	3.720E+00	1.509E+02	7.137E+00	1.593E+00	-5.858E-01	1.491E+00	1.548E-01	1.005E+00	1.204E-01	6.543E+01	-1.767E+02	2.353E+02	2.180E+02
627.65	3.667E+00	1.507E+02	7.137E+00	1.570E+00	-5.799E-01	1.514E+00	1.655E-01	9.903E-01	1.043E-01	6.539E+01	-1.756E+02	2.418E+02	2.176E+02
627.70	3.615E+00	1.505E+02	7.138E+00	1.535E+00	-5.722E-01	1.527E+00	1.771E-01	9.788E-01	8.720E-02	6.503E+01	-1.743E+02	2.483E+02	2.167E+02
627.75	3.775E+00	1.503E+02	7.138E+00	1.487E+00	-5.630E-01	1.530E+00	1.897E-01	9.668E-01	6.955E-02	6.450E+01	-1.727E+02	2.546E+02	2.157E+02
627.80	3.749E+00	1.501E+02	7.138E+00	1.427E+00	-5.526E-01	1.522E+00	2.035E-01	9.522E-01	5.183E-02	6.405E+01	-1.708E+02	2.610E+02	2.152E+02
627.85	3.615E+00	1.500E+02	7.138E+00	1.363E+00	-5.415E-01	1.504E+00	2.179E-01	9.346E-01	3.425E-02	6.296E+01	-1.686E+02	2.673E+02	2.147E+02
627.90	3.696E+00	1.499E+02	7.138E+00	1.297E+00	-5.302E-01	1.479E+00	2.327E-01	9.154E-01	1.684E-02	6.090E+01	-1.663E+02	2.732E+02	2.131E+02
627.95	3.663E+00	1.498E+02	7.138E+00	1.234E+00	-5.190E-01	1.448E+00	2.472E-01	8.968E-01	-3.792E-04	5.815E+01	-1.638E+02	2.793E+02	2.107E+02
628.00	3.684E+00	1.496E+02	7.138E+00	1.176E+00	-5.081E-01	1.414E+00	2.612E-01	8.812E-01	-1.741E-02	5.514E+01	-1.611E+02	2.853E+02	2.075E+02
628.05	3.815E+00	1.495E+02	7.137E+00	1.123E+00	-4.973E-01	1.377E+00	2.745E-01	8.688E-01	-3.424E-02	5.218E+01	-1.584E+02	2.911E+02	2.035E+02
628.10	3.922E+00	1.494E+02	7.136E+00	1.075E+00	-4.866E-01	1.340E+00	2.870E-01	8.590E-01	-5.075E-02	5.037E+01	-1.555E+02	2.968E+02	1.998E+02
628.15	3.941E+00	1.491E+02	7.135E+00	1.032E+00	-4.756E-01	1.301E+00	2.988E-01	8.500E-01	-6.685E-02	4.989E+01	-1.522E+02	3.025E+02	1.968E+02
628.20	4.062E+00	1.489E+02	7.134E+00	9.981E-01	-4.645E-01	1.259E+00	3.098E-01	8.408E-01	-8.256E-02	5.009E+01	-1.488E+02	3.079E+02	1.947E+02
628.25	4.196E+00	1.485E+02	7.132E+00	9.757E-01	-4.534E-01	1.217E+00	3.201E-01	8.316E-01	-9.796E-02	5.079E+01	-1.453E+02	3.131E+02	1.934E+02
628.30	4.087E+00	1.482E+02	7.131E+00	9.664E-01	-4.425E-01	1.177E+00	3.293E-01	8.230E-01	-1.132E-01	5.172E+01	-1.415E+02	3.183E+02	1.925E+02
628.35	3.974E+00	1.477E+02	7.129E+00	9.706E-01	-4.319E-01	1.143E+00	3.371E-01	8.163E-01	-1.286E-01	5.257E+01	-1.375E+02	3.232E+02	1.917E+02
628.40	4.008E+00	1.472E+02	7.127E+00	9.874E-01	-4.216E-01	1.122E+00	3.435E-01	8.133E-01	-1.444E-01	5.324E+01	-1.334E+02	3.280E+02	1.908E+02
628.45	4.033E+00	1.467E+02	7.125E+00	1.015E+00	-4.117E-01	1.114E+00	3.485E-01	8.160E-01	-1.607E-01	5.393E+01	-1.288E+02	3.325E+02	1.896E+02
628.50	4.000E+00	1.461E+02	7.124E+00	1.049E+00	-4.018E-01	1.121E+00	3.522E-01	8.253E-01	-1.776E-01	5.477E+01	-1.241E+02	3.369E+02	1.879E+02
628.55	3.976E+00	1.455E+02	7.122E+00	1.088E+00	-3.920E-01	1.139E+00	3.548E-01	8.413E-01	-1.951E-01	5.586E+01	-1.192E+02	3.410E+02	1.862E+02
628.60	3.884E+00	1.448E+02	7.120E+00	1.128E+00	-3.821E-01	1.164E+00	3.566E-01	8.631E-01	-2.132E-01	5.723E+01	-1.143E+02	3.450E+02	1.850E+02
628.65	3.856E+00	1.441E+02	7.118E+00	1.170E+00	-3.720E-01	1.193E+00	3.579E-01	8.884E-01	-2.314E-01	5.909E+01	-1.094E+02	3.490E+02	1.845E+02
628.70	3.940E+00	1.433E+02	7.116E+00	1.211E+00	-3.617E-01	1.223E+00	3.588E-01	9.130E-01	-2.497E-01	6.087E+01	-1.044E+02	3.528E+02	1.848E+02
628.75	3.983E+00	1.425E+02	7.115E+00	1.252E+00	-3.513E-01	1.254E+00	3.594E-01	9.337E-01	-2.675E-01	6.241E+01	-9.927E+01	3.564E+02	1.861E+02
628.80	4.066E+00	1.417E+02	7.114E+00	1.290E+00	-3.406E-01	1.286E+00	3.597E-01	9.500E-01	-2.848E-01	6.369E+01	-9.398E+01	3.597E+02	1.882E+02
628.85	3.899E+00	1.409E+02	7.112E+00	1.322E+00	-3.294E-01	1.317E+00	3.597E-01	9.642E-01	-3.014E-01	6.474E+01	-8.851E+01	3.627E+02	1.902E+02
628.90	3.838E+00	1.401E+02	7.111E+00	1.346E+00	-3.173E-01	1.346E+00	3.592E-01	9.795E-01	-3.174E-01	6.578E+01	-8.296E+01	3.654E+02	1.912E+02
628.95	3.853E+00	1.393E+02	7.110E+00	1.358E+00	-3.043E-01	1.369E+00	3.581E-01	9.989E-01	-3.331E-01	6.656E+01	-7.732E+01	3.680E+02	1.910E+02
629.00	3.817E+00	1.386E+02	7.109E+00	1.358E+00	-2.900E-01	1.383E+00	3.564E-01	1.023E+00	-3.484E-01	6.688E+01	-7.163E+01	3.706E+02	1.893E+02
629.05	3.899E+00	1.379E+02	7.109E+00	1.345E+00	-2.746E-01	1.386E+00	3.544E-01	1.048E+00	-3.632E-01	6.696E+01	-6.594E+01	3.731E+02	1.870E+02
629.10	3.818E+00	1.371E+02	7.108E+00	1.321E+00	-2.578E-01	1.377E+00	3.521E-01	1.072E+00	-3.773E-01	6.667E+01	-6.008E+01	3.755E+02	1.852E+02
629.15	3.828E+00	1.364E+02	7.107E+00	1.289E+00	-2.397E-01	1.359E+00	3.495E-01	1.092E+00	-3.908E-01	6.547E+01	-5.399E+01	3.775E+02	1.837E+02
629.20	3.825E+00	1.357E+02	7.106E+00	1.251E+00	-2.206E-01	1.335E+00	3.466E-01	1.106E+00	-4.037E-01	6.332E+01	-4.776E+01	3.791E+02	1.814E+02
629.25	3.890E+00	1.350E+02	7.104E+00	1.209E+00	-2.004E-01	1.306E+00	3.432E-01	1.114E+00	-4.161E-01	6.071E+01	-4.132E+01	3.803E+02	1.787E+02
629.30	4.065E+00	1.343E+02	7.103E+00	1.166E+00	-1.795E-01	1.274E+00	3.392E-01	1.120E+00	-4.280E-01	5.772E+01	-3.466E+01	3.813E+02	1.768E+02
629.35	4.107E+00	1.336E+02	7.102E+00	1.120E+00	-1.578E-01	1.242E+00	3.346E-01	1.128E+00	-4.398E-01	5.476E+01	-2.800E+01	3.823E+02	1.756E+02
629.40	4.195E+00	1.328E+02	7.100E+00	1.073E+00	-1.356E-01	1.212E+00	3.294E-01	1.141E+00	-4.519E-01	5.219E+01	-2.138E+01	3.833E+02	1.741E+02
629.45	4.299E+00	1.321E+02	7.099E+00	1.025E+00	-1.131E-01	1.186E+00	3.234E-01	1.162E+00	-4.644E-01	5.060E+01	-1.465E+01	3.841E+02	1.718E+02
629.50	4.326E+00	1.313E+02	7.097E+00	9.768E-01	-9.067E-02	1.167E+00	3.168E-01	1.188E+00	-4.772E-01	4.969E+01	-7.897E+00	3.847E+02	1.685E+02
629.55	4.270E+00	1.305E+02	7.095E+00	9.320E-01	-6.851E-02	1.156E+00	3.096E-01	1.218E+00	-4.901E-01	4.945E+01	-1.300E+00	3.849E+02	1.654E+02
629.60	4.256E+00	1.296E+02	7.094E+00	8.927E-01	-4.703E-02	1.152E+00	3.019E-01	1.247E+00	-5.026E-01	4.973E+01	5.295E+00	3.848E+02	1.636E+02
629.65	4.140E+00	1.287E+02	7.092E+00	8.622E-01	-2.666E-02	1.154E+00	2.939E-01	1.271E+00	-5.140E-01	4.957E+01	1.182E+01	3.846E+02	1.631E+02
629.70	4.135E+00	1.278E+02	7.090E+00	8.444E-01	-7.764E-03	1.159E+00	2.854E-01	1.290E+00	-5.243E-01	4.890E+01	1.830E+01	3.841E+02	1.638E+02
629.75	4.042E+00	1.269E+02	7.088E+00	8.419E-01	9.400E-03	1.167E+00	2.764E-01	1.305E+00	-5.336E-01	4.740E+01	2.486E+01	3.835E+02	1.646E+02
629.80	3.950E+00	1.260E+02	7.087E+00	8.542E-01	2.489E-02	1.177E+00	2.667E-01	1.320E+00	-5.421E-01	4.555E+01	3.142E+01	3.825E+02	1.642E+02
629.85	3.977E+00	1.250E+02	7.085E+00	8.787E-01	3.908E-02	1.188E+00	2.563E-01	1.337E+00	-5.500E-01	4.401E+01	3.786E+01	3.811E+02	1.633E+02
629.90	3.780E+00	1.241E+02	7.084E+00	9.099E-01	5.251E-02	1.199E+00	2.452E-01	1.361E+00	-5.573E-01	4.387E+01	4.416E+01	3.795E+02	1.629E+02
629.95	3.705E+00	1.232E+02	7.083E+00	9.439E-01	6.559E-02	1.206E+00	2.335E-01	1.389E+00	-5.638E-01	4.539E+01	5.026E+01	3.776E+02	1.635E+02
630.00	3.781E+00	1.222E+02	7.082E+00	9.796E-01	7.846E-02	1.209E+00	2.213E-01	1.419E+00	-5.692E-01	4.864E+01	5.616E+01	3.757E+02	1.647E+02
