
This summary file was generated by TurbSim (v2.00.01a-bjj, 14-Oct-2014) on 08-Apr-2015 at 15:16:55.


Runtime Options:

    123456  Random seed #1
    789012  Random seed #2
         F  Output binary HH turbulence parameters?
         F  Output formatted turbulence parameters?
         F  Output AeroDyn HH files?
         T  Output AeroDyn FF files?
         T  Output BLADED FF files?
         F  Output tower data?
         F  Output formatted FF files?
         F  Output coherent turbulence time step file?
         T  Clockwise rotation when looking downwind?
 0 -  NONE  IEC turbulence models scaled to exact specified standard deviation


Turbine/Model Specifications:

         5  Vertical grid-point matrix dimension
         5  Horizontal grid-point matrix dimension
     0.050  Time step [seconds]
   600.000  Analysis time [seconds]
   600.000  Usable output time [seconds]
    90.000  Hub height [m]
   140.000  Grid height [m]
   140.000  Grid width [m]
     0.000  Vertical flow angle [degrees]
     0.000  Horizontal flow angle [degrees]


Meteorological Boundary Conditions:

    IECKAI  IEC Kaimal spectral model
         1  IEC standard: IEC 61400-1 Ed. 3: 2005
         C  IEC turbulence characteristic
       NTM  IEC Normal Turbulence Model
       N/A  IEC Extreme Turbulence Model (ETM) "c" parameter [m/s]
       IEC  Wind profile type
    90.000  Reference height [m]
    10.000  Reference wind speed [m/s]
       N/A  Jet height [m]
     0.200  Power law exponent
     0.030  Surface roughness length [m]


Non-IEC Meteorological Boundary Conditions:

       N/A  Site latitude [degrees]
       N/A  Gradient Richardson number
       N/A  Friction or shear velocity [m/s]
       N/A  Mixing layer depth [m]
       N/A  Mean hub u'w' Reynolds stress
       N/A  Mean hub u'v' Reynolds stress
       N/A  Mean hub v'w' Reynolds stress


Spatial Coherence Models:

       IEC  u-component coherence model
      NONE  v-component coherence model
      NONE  w-component coherence model
(   12.000, 0.353E-03)  u-component coherence parameters
                   N/A  v-component coherence parameters
                   N/A  w-component coherence parameters
       N/A  Coherence exponent


You have requested that the following file(s) be generated:

   5pts_NoSc.bts (AeroDyn/TurbSim full-field wind file)
   5pts_NoSc.wnd (AeroDyn/BLADED full-field wnd file)


Turbulence Simulation Scaling Parameter Summary:

   Turbulence model used                            =  IEC Kaimal
   Turbulence characteristic                        =  C
   IEC turbulence type                              =  Normal Turbulence Model
   IEC standard                                     =  IEC 61400-1 Ed. 3: 2005
   Mean wind speed at hub height                    =   10.000 m/s
   Expected value of turbulence intensity at 15 m/s =   12.000%
   Characteristic value of standard deviation       =    1.572 m/s
   Turbulence scale                                 =   42.000 m
   u-component integral scale                       =  340.200 m
   Coherency scale                                  =  340.200 m
   Characteristic value of hub turbulence intensity =   15.720%
   Gradient Richardson number                       =    0.000

   Wind profile type                                =  Power law on rotor disk, logarithmic elsewhere
   Power law exponent                               =    0.200
   Mean shear across rotor disk                     =    0.027 (m/s)/m
   Assumed rotor diameter                           =  140.000 m
   Surface roughness length                         =    0.030 m

   Nyquist frequency of turbulent wind field        =   10.000 Hz

   Number of time steps in the FFT                  =    12000
   Number of time steps output                      =    12000
   Number of points simulated                       =       25


Mean Flow Angles:

   Vertical   =   0.0 degrees
   Horizontal =   0.0 degrees

Mean Wind Speed Profile:

   Height    Wind Speed   Horizontal Angle  Vertical Angle  U-comp (X)   V-comp (Y)   W-comp (Z)
     (m)        (m/s)         (degrees)       (degrees)       (m/s)        (m/s)        (m/s)   
   ------    ----------   ----------------  --------------  ----------   ----------   ----------
    160.0       11.22            0.00            0.00         11.22         0.00         0.00
    125.0       10.68            0.00            0.00         10.68         0.00         0.00
     90.0       10.00            0.00            0.00         10.00         0.00         0.00
     55.0        9.06            0.00            0.00          9.06         0.00         0.00
     20.0        7.40            0.00            0.00          7.40         0.00         0.00


Harvested Random Seeds after Generation of the Random Numbers:

     10019333 Harvested seed # 1
      6884003 Harvested seed # 2
      9167414 Harvested seed # 3
     12978756 Harvested seed # 4
      3269176 Harvested seed # 5
      4328014 Harvested seed # 6
      4121126 Harvested seed # 7
     12716644 Harvested seed # 8
    647519493 Harvested seed # 9
  -1486247517 Harvested seed #10
     76252982 Harvested seed #11
   -389673660 Harvested seed #12


Hub-Height Simulated Turbulence Statistical Summary:

   Type of Wind        Min (m/s)   Mean (m/s)    Max (m/s)  Sigma (m/s)       TI (%)
   ----------------    ---------   ----------    ---------  -----------       ------
   Longitudinal (u)         5.71        10.00        15.66        1.774       17.739
   Lateral (v)             -4.68         0.00         4.00        1.226       12.261
   Vertical (w)            -2.77        -0.00         3.22        0.769        7.693
   U component              5.71        10.00        15.66        1.774       17.739
   V component             -4.68         0.00         4.00        1.226       12.261
   W component             -2.77        -0.00         3.22        0.769        7.693
   Horizontal (U&V)         5.73        10.08        15.69        1.763       17.497
   Total                    5.86        10.11        15.70        1.762       17.438

                       Min Reynolds     Mean Reynolds    Max Reynolds    Correlation
   Product             Stress (m/s)^2   Stress (m/s)^2   Stress (m/s)^2  Coefficient
   ----------------    --------------   --------------   --------------  -----------
   u'w'                     -8.677            -0.103            10.470        -0.076
   u'v'                    -10.202             0.267            14.630         0.123
   v'w'                    -10.467            -0.115             5.624        -0.122


   Friction Velocity (Ustar)  =      0.322 m/s
   Maximum Instantaneous TKE  =     16.945 (m/s)^2
   Maximum Instantaneous CTKE =      8.032 (m/s)^2


Grid Point Variance Summary:

   Y-coord  -70.00  -35.00    0.00   35.00   70.00

   Height   Standard deviation at grid points for the u component:
   160.00    1.796   1.829   1.682   1.793   1.721
   125.00    1.652   1.739   1.732   1.761   1.702
    90.00    1.621   1.662   1.774   1.657   1.515
    55.00    1.577   1.634   1.510   1.622   1.373
    20.00    1.484   1.492   1.542   1.520   1.536

   Height   Standard deviation at grid points for the v component:
   160.00    1.226   1.226   1.226   1.226   1.226
   125.00    1.226   1.226   1.226   1.226   1.226
    90.00    1.226   1.226   1.226   1.226   1.226
    55.00    1.226   1.226   1.226   1.226   1.226
    20.00    1.226   1.226   1.226   1.226   1.226

   Height   Standard deviation at grid points for the w component:
   160.00    0.769   0.769   0.769   0.769   0.769
   125.00    0.769   0.769   0.769   0.769   0.769
    90.00    0.769   0.769   0.769   0.769   0.769
    55.00    0.769   0.769   0.769   0.769   0.769
    20.00    0.769   0.769   0.769   0.769   0.769

   Mean standard deviation across all grid points:
      u component:    1.637 m/s
      v component:    1.226 m/s
      w component:    0.769 m/s


U-component (X) statistics from the interpolated hub point:

   Mean =  10.0000 m/s
   TI   =  17.7387 %


Normalizing Parameters for Binary Data (approximate statistics):

   UBar  =  10.0000 m/s
   TI(u) =  17.7387 %
   TI(v) =  12.2606 %
   TI(w) =   7.6928 %

   Height Offset =   0.0000 m
   Grid Base     =  20.0000 m

Creating a PERIODIC output file.


Processing complete.  0.70928 CPU seconds used.
