
This summary file was generated by TurbSim (v2.00.01a-bjj, 14-Oct-2014) on 17-Jan-2016 at 17:57:25.


Runtime Options:

 745114648  Random seed #1
-154794614  Random seed #2
         F  Output binary HH turbulence parameters?
         F  Output formatted turbulence parameters?
         F  Output AeroDyn HH files?
         T  Output AeroDyn FF files?
         F  Output BLADED FF files?
         F  Output tower data?
         F  Output formatted FF files?
         F  Output coherent turbulence time step file?
         T  Clockwise rotation when looking downwind?
 0 -  NONE  IEC turbulence models scaled to exact specified standard deviation


Turbine/Model Specifications:

        15  Vertical grid-point matrix dimension
        15  Horizontal grid-point matrix dimension
     0.050  Time step [seconds]
   630.000  Analysis time [seconds]
   630.000  Usable output time [seconds]
   154.000  Hub height [m]
   140.000  Grid height [m]
   140.000  Grid width [m]
     0.000  Vertical flow angle [degrees]
     0.000  Horizontal flow angle [degrees]


Meteorological Boundary Conditions:

    USRINP  Uniform user-input spectral model
       N/A  IEC standard
       N/A  IEC turbulence characteristic
       N/A  IEC turbulence type
       N/A  IEC Extreme Turbulence Model (ETM) "c" parameter [m/s]
       PL   Wind profile type
   100.000  Reference height [m]
     6.300  Reference wind speed [m/s]
       N/A  Jet height [m]
     0.200  Power law exponent
     0.030  Surface roughness length [m]


Non-IEC Meteorological Boundary Conditions:

    45.000  Site latitude [degrees]
     0.050  Gradient Richardson number
     0.298  Friction or shear velocity [m/s]
       N/A  Mixing layer depth [m]
       N/A  Mean hub u'w' Reynolds stress
       N/A  Mean hub u'v' Reynolds stress
       N/A  Mean hub v'w' Reynolds stress


Spatial Coherence Models:

       IEC  u-component coherence model
      NONE  v-component coherence model
      NONE  w-component coherence model
(   12.000, 0.353E-03)  u-component coherence parameters
                   N/A  v-component coherence parameters
                   N/A  w-component coherence parameters
       N/A  Coherence exponent


You have requested that the following file(s) be generated:

   WP5.0A04V00\WP5.0A04V00_0.bts (AeroDyn/TurbSim full-field wind file)


Turbulence Simulation Scaling Parameter Summary:

   Turbulence model used                            =  Uniform user-input
   Gradient Richardson number                       =    0.050
   Monin-Obukhov (M-O) z/L parameter                =    0.067
   Monin-Obukhov (M-O) length scale                 = 2310.000 m
   Mean wind speed at hub height                    =    6.868 m/s

   Wind profile type                                =  Power law
   Power law exponent                               =    0.200
   Mean shear across rotor disk                     =    0.009 (m/s)/m
   Assumed rotor diameter                           =  140.000 m
   Surface roughness length                         =    0.030 m

   Nyquist frequency of turbulent wind field        =   10.000 Hz

   Number of time steps in the FFT                  =    12600
   Number of time steps output                      =    12600
   Number of points simulated                       =      225


Mean Flow Angles:

   Vertical   =   0.0 degrees
   Horizontal =   0.0 degrees

Mean Wind Speed Profile:

   Height    Wind Speed   Horizontal Angle  Vertical Angle  U-comp (X)   V-comp (Y)   W-comp (Z)
     (m)        (m/s)         (degrees)       (degrees)       (m/s)        (m/s)        (m/s)   
   ------    ----------   ----------------  --------------  ----------   ----------   ----------
    224.0        7.40            0.00            0.00          7.40         0.00         0.00
    214.0        7.34            0.00            0.00          7.34         0.00         0.00
    204.0        7.27            0.00            0.00          7.27         0.00         0.00
    194.0        7.19            0.00            0.00          7.19         0.00         0.00
    184.0        7.12            0.00            0.00          7.12         0.00         0.00
    174.0        7.04            0.00            0.00          7.04         0.00         0.00
    164.0        6.96            0.00            0.00          6.96         0.00         0.00
    154.0        6.87            0.00            0.00          6.87         0.00         0.00
    144.0        6.78            0.00            0.00          6.78         0.00         0.00
    134.0        6.68            0.00            0.00          6.68         0.00         0.00
    124.0        6.58            0.00            0.00          6.58         0.00         0.00
    114.0        6.47            0.00            0.00          6.47         0.00         0.00
    104.0        6.35            0.00            0.00          6.35         0.00         0.00
     94.0        6.22            0.00            0.00          6.22         0.00         0.00
     84.0        6.08            0.00            0.00          6.08         0.00         0.00


Harvested Random Seeds after Generation of the Random Numbers:

   1386057037 Harvested seed # 1
    311436520 Harvested seed # 2


Hub-Height Simulated Turbulence Statistical Summary:

   Type of Wind        Min (m/s)   Mean (m/s)    Max (m/s)  Sigma (m/s)       TI (%)
   ----------------    ---------   ----------    ---------  -----------       ------
   Longitudinal (u)         1.50         6.87        12.41        1.784       25.974
   Lateral (v)             -5.01         0.00         4.87        1.680       24.462
   Vertical (w)            -3.31        -0.00         3.37        1.050       15.287
   U component              1.50         6.87        12.41        1.784       25.974
   V component             -5.01         0.00         4.87        1.680       24.462
   W component             -3.31        -0.00         3.37        1.050       15.287
   Horizontal (U&V)         1.78         7.08        12.41        1.761       24.881
   Total                    2.23         7.16        12.42        1.733       24.201

                       Min Reynolds     Mean Reynolds    Max Reynolds    Correlation
   Product             Stress (m/s)^2   Stress (m/s)^2   Stress (m/s)^2  Coefficient
   ----------------    --------------   --------------   --------------  -----------
   u'w'                    -16.367             0.045            15.705         0.024
   u'v'                    -15.498             0.067            16.138         0.022
   v'w'                     -9.842             0.099            10.365         0.056


   Friction Velocity (Ustar)  =      0.211 m/s
   Maximum Instantaneous TKE  =     18.027 (m/s)^2
   Maximum Instantaneous CTKE =      8.664 (m/s)^2


Grid Point Variance Summary:

   Y-coord  -70.00  -60.00  -50.00  -40.00  -30.00  -20.00  -10.00    0.00   10.00   20.00   30.00   40.00   50.00   60.00   70.00

   Height   Standard deviation at grid points for the u component:
   224.00    1.960   1.672   1.612   1.480   1.645   2.049   2.121   2.377   2.326   2.246   2.117   1.947   2.215   2.249   2.340
   214.00    1.923   1.749   1.583   1.544   1.574   1.846   2.200   2.344   2.151   2.181   1.965   2.145   2.184   2.114   2.256
   204.00    1.819   1.916   1.825   1.537   1.596   1.655   2.061   1.997   2.000   2.110   1.979   1.945   2.043   2.099   2.111
   194.00    1.905   1.926   1.775   1.588   1.541   1.710   2.012   1.983   2.005   2.108   2.137   1.939   2.008   2.179   2.071
   184.00    1.946   1.760   1.718   1.466   1.532   1.625   1.838   1.782   2.042   1.922   2.091   1.804   1.894   1.948   2.285
   174.00    1.873   1.910   1.799   1.635   1.695   1.722   1.677   1.634   1.809   2.016   1.994   1.977   1.956   1.947   2.335
   164.00    1.899   1.909   1.716   1.790   1.700   1.808   1.727   1.780   1.982   2.135   1.960   1.834   1.802   1.980   2.189
   154.00    1.895   1.800   1.773   1.919   1.735   1.835   1.733   1.784   1.947   2.110   1.958   1.787   1.996   2.217   2.389
   144.00    1.918   1.897   2.120   2.070   1.864   1.853   1.837   1.972   1.982   1.901   1.839   2.102   2.114   2.243   2.224
   134.00    2.076   1.979   1.887   2.055   1.881   1.961   1.715   1.886   1.891   1.929   1.872   2.200   2.161   2.468   2.163
   124.00    1.966   1.885   2.102   2.100   1.991   2.019   1.704   1.791   2.008   2.156   1.988   2.266   2.290   2.306   2.270
   114.00    1.994   1.928   2.002   1.971   1.902   2.006   1.848   1.850   2.084   2.106   2.281   2.241   2.269   2.040   2.101
   104.00    2.277   2.121   2.212   2.011   2.033   1.964   1.833   1.926   1.790   2.137   2.119   1.967   2.200   2.264   2.242
    94.00    2.176   2.048   2.308   2.411   2.088   1.872   1.984   2.102   2.132   2.091   2.221   2.047   2.162   2.274   2.280
    84.00    2.101   2.053   2.282   2.342   2.158   2.109   2.124   2.114   2.239   2.256   1.971   2.147   2.107   2.171   2.239

   Height   Standard deviation at grid points for the v component:
   224.00    1.680   1.680   1.680   1.680   1.680   1.680   1.680   1.680   1.680   1.680   1.680   1.680   1.680   1.680   1.680
   214.00    1.680   1.680   1.680   1.680   1.680   1.680   1.680   1.680   1.680   1.680   1.680   1.680   1.680   1.680   1.680
   204.00    1.680   1.680   1.680   1.680   1.680   1.680   1.680   1.680   1.680   1.680   1.680   1.680   1.680   1.680   1.680
   194.00    1.680   1.680   1.680   1.680   1.680   1.680   1.680   1.680   1.680   1.680   1.680   1.680   1.680   1.680   1.680
   184.00    1.680   1.680   1.680   1.680   1.680   1.680   1.680   1.680   1.680   1.680   1.680   1.680   1.680   1.680   1.680
   174.00    1.680   1.680   1.680   1.680   1.680   1.680   1.680   1.680   1.680   1.680   1.680   1.680   1.680   1.680   1.680
   164.00    1.680   1.680   1.680   1.680   1.680   1.680   1.680   1.680   1.680   1.680   1.680   1.680   1.680   1.680   1.680
   154.00    1.680   1.680   1.680   1.680   1.680   1.680   1.680   1.680   1.680   1.680   1.680   1.680   1.680   1.680   1.680
   144.00    1.680   1.680   1.680   1.680   1.680   1.680   1.680   1.680   1.680   1.680   1.680   1.680   1.680   1.680   1.680
   134.00    1.680   1.680   1.680   1.680   1.680   1.680   1.680   1.680   1.680   1.680   1.680   1.680   1.680   1.680   1.680
   124.00    1.680   1.680   1.680   1.680   1.680   1.680   1.680   1.680   1.680   1.680   1.680   1.680   1.680   1.680   1.680
   114.00    1.680   1.680   1.680   1.680   1.680   1.680   1.680   1.680   1.680   1.680   1.680   1.680   1.680   1.680   1.680
   104.00    1.680   1.680   1.680   1.680   1.680   1.680   1.680   1.680   1.680   1.680   1.680   1.680   1.680   1.680   1.680
    94.00    1.680   1.680   1.680   1.680   1.680   1.680   1.680   1.680   1.680   1.680   1.680   1.680   1.680   1.680   1.680
    84.00    1.680   1.680   1.680   1.680   1.680   1.680   1.680   1.680   1.680   1.680   1.680   1.680   1.680   1.680   1.680

   Height   Standard deviation at grid points for the w component:
   224.00    1.050   1.050   1.050   1.050   1.050   1.050   1.050   1.050   1.050   1.050   1.050   1.050   1.050   1.050   1.050
   214.00    1.050   1.050   1.050   1.050   1.050   1.050   1.050   1.050   1.050   1.050   1.050   1.050   1.050   1.050   1.050
   204.00    1.050   1.050   1.050   1.050   1.050   1.050   1.050   1.050   1.050   1.050   1.050   1.050   1.050   1.050   1.050
   194.00    1.050   1.050   1.050   1.050   1.050   1.050   1.050   1.050   1.050   1.050   1.050   1.050   1.050   1.050   1.050
   184.00    1.050   1.050   1.050   1.050   1.050   1.050   1.050   1.050   1.050   1.050   1.050   1.050   1.050   1.050   1.050
   174.00    1.050   1.050   1.050   1.050   1.050   1.050   1.050   1.050   1.050   1.050   1.050   1.050   1.050   1.050   1.050
   164.00    1.050   1.050   1.050   1.050   1.050   1.050   1.050   1.050   1.050   1.050   1.050   1.050   1.050   1.050   1.050
   154.00    1.050   1.050   1.050   1.050   1.050   1.050   1.050   1.050   1.050   1.050   1.050   1.050   1.050   1.050   1.050
   144.00    1.050   1.050   1.050   1.050   1.050   1.050   1.050   1.050   1.050   1.050   1.050   1.050   1.050   1.050   1.050
   134.00    1.050   1.050   1.050   1.050   1.050   1.050   1.050   1.050   1.050   1.050   1.050   1.050   1.050   1.050   1.050
   124.00    1.050   1.050   1.050   1.050   1.050   1.050   1.050   1.050   1.050   1.050   1.050   1.050   1.050   1.050   1.050
   114.00    1.050   1.050   1.050   1.050   1.050   1.050   1.050   1.050   1.050   1.050   1.050   1.050   1.050   1.050   1.050
   104.00    1.050   1.050   1.050   1.050   1.050   1.050   1.050   1.050   1.050   1.050   1.050   1.050   1.050   1.050   1.050
    94.00    1.050   1.050   1.050   1.050   1.050   1.050   1.050   1.050   1.050   1.050   1.050   1.050   1.050   1.050   1.050
    84.00    1.050   1.050   1.050   1.050   1.050   1.050   1.050   1.050   1.050   1.050   1.050   1.050   1.050   1.050   1.050

   Mean standard deviation across all grid points:
      u component:    1.990 m/s
      v component:    1.680 m/s
      w component:    1.050 m/s


U-component (X) statistics from the interpolated hub point:

   Mean =   6.8682 m/s
   TI   =  25.9739 %


Processing complete.  8.7517 CPU seconds used.
