
This summary file was generated by TurbSim (v2.00.01a-bjj, 14-Oct-2014) on 14-Jan-2016 at 10:43:46.


Runtime Options:

 -58490046  Random seed #1
-496407563  Random seed #2
         F  Output binary HH turbulence parameters?
         F  Output formatted turbulence parameters?
         F  Output AeroDyn HH files?
         T  Output AeroDyn FF files?
         F  Output BLADED FF files?
         F  Output tower data?
         F  Output formatted FF files?
         F  Output coherent turbulence time step file?
         T  Clockwise rotation when looking downwind?
 0 -  NONE  IEC turbulence models scaled to exact specified standard deviation


Turbine/Model Specifications:

        15  Vertical grid-point matrix dimension
        15  Horizontal grid-point matrix dimension
     0.050  Time step [seconds]
   630.000  Analysis time [seconds]
   630.000  Usable output time [seconds]
   154.000  Hub height [m]
   140.000  Grid height [m]
   140.000  Grid width [m]
     0.000  Vertical flow angle [degrees]
     0.000  Horizontal flow angle [degrees]


Meteorological Boundary Conditions:

    USRINP  Uniform user-input spectral model
       N/A  IEC standard
       N/A  IEC turbulence characteristic
       N/A  IEC turbulence type
       N/A  IEC Extreme Turbulence Model (ETM) "c" parameter [m/s]
       PL   Wind profile type
   100.000  Reference height [m]
    13.500  Reference wind speed [m/s]
       N/A  Jet height [m]
     0.200  Power law exponent
     0.030  Surface roughness length [m]


Non-IEC Meteorological Boundary Conditions:

    45.000  Site latitude [degrees]
     0.050  Gradient Richardson number
     0.639  Friction or shear velocity [m/s]
       N/A  Mixing layer depth [m]
       N/A  Mean hub u'w' Reynolds stress
       N/A  Mean hub u'v' Reynolds stress
       N/A  Mean hub v'w' Reynolds stress


Spatial Coherence Models:

       IEC  u-component coherence model
      NONE  v-component coherence model
      NONE  w-component coherence model
(   12.000, 0.353E-03)  u-component coherence parameters
                   N/A  v-component coherence parameters
                   N/A  w-component coherence parameters
       N/A  Coherence exponent


You have requested that the following file(s) be generated:

   WP5.0A04V00\WP5.0A04V00_1.bts (AeroDyn/TurbSim full-field wind file)


Turbulence Simulation Scaling Parameter Summary:

   Turbulence model used                            =  Uniform user-input
   Gradient Richardson number                       =    0.050
   Monin-Obukhov (M-O) z/L parameter                =    0.067
   Monin-Obukhov (M-O) length scale                 = 2310.000 m
   Mean wind speed at hub height                    =   14.718 m/s

   Wind profile type                                =  Power law
   Power law exponent                               =    0.200
   Mean shear across rotor disk                     =    0.020 (m/s)/m
   Assumed rotor diameter                           =  140.000 m
   Surface roughness length                         =    0.030 m

   Nyquist frequency of turbulent wind field        =   10.000 Hz

   Number of time steps in the FFT                  =    12600
   Number of time steps output                      =    12600
   Number of points simulated                       =      225


Mean Flow Angles:

   Vertical   =   0.0 degrees
   Horizontal =   0.0 degrees

Mean Wind Speed Profile:

   Height    Wind Speed   Horizontal Angle  Vertical Angle  U-comp (X)   V-comp (Y)   W-comp (Z)
     (m)        (m/s)         (degrees)       (degrees)       (m/s)        (m/s)        (m/s)   
   ------    ----------   ----------------  --------------  ----------   ----------   ----------
    224.0       15.86            0.00            0.00         15.86         0.00         0.00
    214.0       15.72            0.00            0.00         15.72         0.00         0.00
    204.0       15.57            0.00            0.00         15.57         0.00         0.00
    194.0       15.41            0.00            0.00         15.41         0.00         0.00
    184.0       15.25            0.00            0.00         15.25         0.00         0.00
    174.0       15.08            0.00            0.00         15.08         0.00         0.00
    164.0       14.90            0.00            0.00         14.90         0.00         0.00
    154.0       14.72            0.00            0.00         14.72         0.00         0.00
    144.0       14.52            0.00            0.00         14.52         0.00         0.00
    134.0       14.31            0.00            0.00         14.31         0.00         0.00
    124.0       14.09            0.00            0.00         14.09         0.00         0.00
    114.0       13.86            0.00            0.00         13.86         0.00         0.00
    104.0       13.61            0.00            0.00         13.61         0.00         0.00
     94.0       13.33            0.00            0.00         13.33         0.00         0.00
     84.0       13.04            0.00            0.00         13.04         0.00         0.00


Harvested Random Seeds after Generation of the Random Numbers:

    867101775 Harvested seed # 1
    234220367 Harvested seed # 2


Hub-Height Simulated Turbulence Statistical Summary:

   Type of Wind        Min (m/s)   Mean (m/s)    Max (m/s)  Sigma (m/s)       TI (%)
   ----------------    ---------   ----------    ---------  -----------       ------
   Longitudinal (u)         8.36        14.72        21.74        2.131       14.478
   Lateral (v)             -6.01         0.00         6.65        1.680       11.415
   Vertical (w)            -3.26        -0.00         3.73        1.050        7.134
   U component              8.36        14.72        21.74        2.131       14.478
   V component             -6.01         0.00         6.65        1.680       11.415
   W component             -3.26        -0.00         3.73        1.050        7.134
   Horizontal (U&V)         8.39        14.81        21.78        2.127       14.355
   Total                    8.39        14.85        21.80        2.122       14.288

                       Min Reynolds     Mean Reynolds    Max Reynolds    Correlation
   Product             Stress (m/s)^2   Stress (m/s)^2   Stress (m/s)^2  Coefficient
   ----------------    --------------   --------------   --------------  -----------
   u'w'                    -13.519             0.001            17.628         0.000
   u'v'                    -12.684             0.519            22.294         0.145
   v'w'                    -12.090            -0.126            13.914        -0.072


   Friction Velocity (Ustar)  =      0.033 m/s
   Maximum Instantaneous TKE  =     25.851 (m/s)^2
   Maximum Instantaneous CTKE =     12.752 (m/s)^2


Grid Point Variance Summary:

   Y-coord  -70.00  -60.00  -50.00  -40.00  -30.00  -20.00  -10.00    0.00   10.00   20.00   30.00   40.00   50.00   60.00   70.00

   Height   Standard deviation at grid points for the u component:
   224.00    2.265   2.333   2.385   2.238   2.311   2.295   2.406   2.399   2.400   2.343   2.509   2.524   2.383   2.433   2.348
   214.00    2.306   2.330   2.447   2.298   2.325   2.327   2.274   2.111   2.206   2.352   2.421   2.491   2.521   2.411   2.348
   204.00    2.313   2.347   2.408   2.216   2.138   2.068   2.142   2.236   2.314   2.413   2.479   2.545   2.291   2.184   2.142
   194.00    2.217   2.269   2.337   2.270   2.063   2.089   1.981   2.215   2.338   2.301   2.284   2.324   2.200   2.174   2.237
   184.00    2.299   2.274   2.279   2.142   1.976   1.977   1.979   2.125   2.172   2.124   2.237   2.266   2.230   2.132   2.215
   174.00    2.403   2.347   2.332   1.961   2.048   1.985   2.033   2.096   2.184   2.179   2.251   2.203   2.139   2.151   2.238
   164.00    2.152   2.147   2.130   2.066   2.018   2.058   2.016   1.959   2.151   2.240   2.360   2.297   2.349   2.228   2.182
   154.00    2.145   1.935   2.043   2.067   2.031   1.950   2.089   2.131   2.140   2.229   2.278   2.379   2.285   2.347   2.186
   144.00    2.366   2.153   2.163   2.145   2.150   2.114   2.100   2.119   2.109   2.067   2.085   2.209   2.222   2.299   2.332
   134.00    2.329   2.214   2.245   1.990   2.084   2.192   2.171   2.188   2.006   2.102   2.140   2.190   2.075   2.107   2.231
   124.00    2.401   2.316   2.209   2.008   2.171   2.244   2.233   2.107   2.044   1.910   2.166   2.004   2.036   2.088   2.178
   114.00    2.276   2.274   2.139   2.030   2.031   2.115   2.062   1.931   1.821   1.911   1.973   2.116   2.126   1.956   2.005
   104.00    2.172   2.094   2.192   2.049   1.951   1.855   1.946   2.086   1.876   1.761   1.861   1.946   2.038   1.912   2.204
    94.00    2.055   1.947   1.993   1.982   1.915   1.958   1.982   1.967   1.978   1.961   1.832   1.983   2.041   1.871   2.056
    84.00    2.100   1.951   1.987   2.102   2.013   1.960   1.922   1.934   2.005   1.848   1.893   1.966   1.845   1.869   2.032

   Height   Standard deviation at grid points for the v component:
   224.00    1.680   1.680   1.680   1.680   1.680   1.680   1.680   1.680   1.680   1.680   1.680   1.680   1.680   1.680   1.680
   214.00    1.680   1.680   1.680   1.680   1.680   1.680   1.680   1.680   1.680   1.680   1.680   1.680   1.680   1.680   1.680
   204.00    1.680   1.680   1.680   1.680   1.680   1.680   1.680   1.680   1.680   1.680   1.680   1.680   1.680   1.680   1.680
   194.00    1.680   1.680   1.680   1.680   1.680   1.680   1.680   1.680   1.680   1.680   1.680   1.680   1.680   1.680   1.680
   184.00    1.680   1.680   1.680   1.680   1.680   1.680   1.680   1.680   1.680   1.680   1.680   1.680   1.680   1.680   1.680
   174.00    1.680   1.680   1.680   1.680   1.680   1.680   1.680   1.680   1.680   1.680   1.680   1.680   1.680   1.680   1.680
   164.00    1.680   1.680   1.680   1.680   1.680   1.680   1.680   1.680   1.680   1.680   1.680   1.680   1.680   1.680   1.680
   154.00    1.680   1.680   1.680   1.680   1.680   1.680   1.680   1.680   1.680   1.680   1.680   1.680   1.680   1.680   1.680
   144.00    1.680   1.680   1.680   1.680   1.680   1.680   1.680   1.680   1.680   1.680   1.680   1.680   1.680   1.680   1.680
   134.00    1.680   1.680   1.680   1.680   1.680   1.680   1.680   1.680   1.680   1.680   1.680   1.680   1.680   1.680   1.680
   124.00    1.680   1.680   1.680   1.680   1.680   1.680   1.680   1.680   1.680   1.680   1.680   1.680   1.680   1.680   1.680
   114.00    1.680   1.680   1.680   1.680   1.680   1.680   1.680   1.680   1.680   1.680   1.680   1.680   1.680   1.680   1.680
   104.00    1.680   1.680   1.680   1.680   1.680   1.680   1.680   1.680   1.680   1.680   1.680   1.680   1.680   1.680   1.680
    94.00    1.680   1.680   1.680   1.680   1.680   1.680   1.680   1.680   1.680   1.680   1.680   1.680   1.680   1.680   1.680
    84.00    1.680   1.680   1.680   1.680   1.680   1.680   1.680   1.680   1.680   1.680   1.680   1.680   1.680   1.680   1.680

   Height   Standard deviation at grid points for the w component:
   224.00    1.050   1.050   1.050   1.050   1.050   1.050   1.050   1.050   1.050   1.050   1.050   1.050   1.050   1.050   1.050
   214.00    1.050   1.050   1.050   1.050   1.050   1.050   1.050   1.050   1.050   1.050   1.050   1.050   1.050   1.050   1.050
   204.00    1.050   1.050   1.050   1.050   1.050   1.050   1.050   1.050   1.050   1.050   1.050   1.050   1.050   1.050   1.050
   194.00    1.050   1.050   1.050   1.050   1.050   1.050   1.050   1.050   1.050   1.050   1.050   1.050   1.050   1.050   1.050
   184.00    1.050   1.050   1.050   1.050   1.050   1.050   1.050   1.050   1.050   1.050   1.050   1.050   1.050   1.050   1.050
   174.00    1.050   1.050   1.050   1.050   1.050   1.050   1.050   1.050   1.050   1.050   1.050   1.050   1.050   1.050   1.050
   164.00    1.050   1.050   1.050   1.050   1.050   1.050   1.050   1.050   1.050   1.050   1.050   1.050   1.050   1.050   1.050
   154.00    1.050   1.050   1.050   1.050   1.050   1.050   1.050   1.050   1.050   1.050   1.050   1.050   1.050   1.050   1.050
   144.00    1.050   1.050   1.050   1.050   1.050   1.050   1.050   1.050   1.050   1.050   1.050   1.050   1.050   1.050   1.050
   134.00    1.050   1.050   1.050   1.050   1.050   1.050   1.050   1.050   1.050   1.050   1.050   1.050   1.050   1.050   1.050
   124.00    1.050   1.050   1.050   1.050   1.050   1.050   1.050   1.050   1.050   1.050   1.050   1.050   1.050   1.050   1.050
   114.00    1.050   1.050   1.050   1.050   1.050   1.050   1.050   1.050   1.050   1.050   1.050   1.050   1.050   1.050   1.050
   104.00    1.050   1.050   1.050   1.050   1.050   1.050   1.050   1.050   1.050   1.050   1.050   1.050   1.050   1.050   1.050
    94.00    1.050   1.050   1.050   1.050   1.050   1.050   1.050   1.050   1.050   1.050   1.050   1.050   1.050   1.050   1.050
    84.00    1.050   1.050   1.050   1.050   1.050   1.050   1.050   1.050   1.050   1.050   1.050   1.050   1.050   1.050   1.050

   Mean standard deviation across all grid points:
      u component:    2.153 m/s
      v component:    1.680 m/s
      w component:    1.050 m/s


U-component (X) statistics from the interpolated hub point:

   Mean =  14.7176 m/s
   TI   =  14.4777 %


Processing complete.  8.9857 CPU seconds used.
