
This summary file was generated by TurbSim (v2.00.01a-bjj, 14-Oct-2014) on 14-Jan-2016 at 10:41:56.


Runtime Options:

 745114648  Random seed #1
-154794614  Random seed #2
         F  Output binary HH turbulence parameters?
         F  Output formatted turbulence parameters?
         F  Output AeroDyn HH files?
         T  Output AeroDyn FF files?
         F  Output BLADED FF files?
         F  Output tower data?
         F  Output formatted FF files?
         F  Output coherent turbulence time step file?
         T  Clockwise rotation when looking downwind?
 0 -  NONE  IEC turbulence models scaled to exact specified standard deviation


Turbine/Model Specifications:

        15  Vertical grid-point matrix dimension
        15  Horizontal grid-point matrix dimension
     0.050  Time step [seconds]
   630.000  Analysis time [seconds]
   630.000  Usable output time [seconds]
   154.000  Hub height [m]
   140.000  Grid height [m]
   140.000  Grid width [m]
     0.000  Vertical flow angle [degrees]
     0.000  Horizontal flow angle [degrees]


Meteorological Boundary Conditions:

    USRINP  Uniform user-input spectral model
       N/A  IEC standard
       N/A  IEC turbulence characteristic
       N/A  IEC turbulence type
       N/A  IEC Extreme Turbulence Model (ETM) "c" parameter [m/s]
       PL   Wind profile type
   100.000  Reference height [m]
    13.500  Reference wind speed [m/s]
       N/A  Jet height [m]
     0.200  Power law exponent
     0.030  Surface roughness length [m]


Non-IEC Meteorological Boundary Conditions:

    45.000  Site latitude [degrees]
     0.050  Gradient Richardson number
     0.639  Friction or shear velocity [m/s]
       N/A  Mixing layer depth [m]
       N/A  Mean hub u'w' Reynolds stress
       N/A  Mean hub u'v' Reynolds stress
       N/A  Mean hub v'w' Reynolds stress


Spatial Coherence Models:

       IEC  u-component coherence model
      NONE  v-component coherence model
      NONE  w-component coherence model
(   12.000, 0.353E-03)  u-component coherence parameters
                   N/A  v-component coherence parameters
                   N/A  w-component coherence parameters
       N/A  Coherence exponent


You have requested that the following file(s) be generated:

   WP5.0A04V00\WP5.0A04V00_0.bts (AeroDyn/TurbSim full-field wind file)


Turbulence Simulation Scaling Parameter Summary:

   Turbulence model used                            =  Uniform user-input
   Gradient Richardson number                       =    0.050
   Monin-Obukhov (M-O) z/L parameter                =    0.067
   Monin-Obukhov (M-O) length scale                 = 2310.000 m
   Mean wind speed at hub height                    =   14.718 m/s

   Wind profile type                                =  Power law
   Power law exponent                               =    0.200
   Mean shear across rotor disk                     =    0.020 (m/s)/m
   Assumed rotor diameter                           =  140.000 m
   Surface roughness length                         =    0.030 m

   Nyquist frequency of turbulent wind field        =   10.000 Hz

   Number of time steps in the FFT                  =    12600
   Number of time steps output                      =    12600
   Number of points simulated                       =      225


Mean Flow Angles:

   Vertical   =   0.0 degrees
   Horizontal =   0.0 degrees

Mean Wind Speed Profile:

   Height    Wind Speed   Horizontal Angle  Vertical Angle  U-comp (X)   V-comp (Y)   W-comp (Z)
     (m)        (m/s)         (degrees)       (degrees)       (m/s)        (m/s)        (m/s)   
   ------    ----------   ----------------  --------------  ----------   ----------   ----------
    224.0       15.86            0.00            0.00         15.86         0.00         0.00
    214.0       15.72            0.00            0.00         15.72         0.00         0.00
    204.0       15.57            0.00            0.00         15.57         0.00         0.00
    194.0       15.41            0.00            0.00         15.41         0.00         0.00
    184.0       15.25            0.00            0.00         15.25         0.00         0.00
    174.0       15.08            0.00            0.00         15.08         0.00         0.00
    164.0       14.90            0.00            0.00         14.90         0.00         0.00
    154.0       14.72            0.00            0.00         14.72         0.00         0.00
    144.0       14.52            0.00            0.00         14.52         0.00         0.00
    134.0       14.31            0.00            0.00         14.31         0.00         0.00
    124.0       14.09            0.00            0.00         14.09         0.00         0.00
    114.0       13.86            0.00            0.00         13.86         0.00         0.00
    104.0       13.61            0.00            0.00         13.61         0.00         0.00
     94.0       13.33            0.00            0.00         13.33         0.00         0.00
     84.0       13.04            0.00            0.00         13.04         0.00         0.00


Harvested Random Seeds after Generation of the Random Numbers:

   1386057037 Harvested seed # 1
    311436520 Harvested seed # 2


Hub-Height Simulated Turbulence Statistical Summary:

   Type of Wind        Min (m/s)   Mean (m/s)    Max (m/s)  Sigma (m/s)       TI (%)
   ----------------    ---------   ----------    ---------  -----------       ------
   Longitudinal (u)         8.33        14.72        20.19        1.926       13.087
   Lateral (v)             -5.38         0.00         5.40        1.680       11.415
   Vertical (w)            -3.59        -0.00         3.58        1.050        7.134
   U component              8.33        14.72        20.19        1.926       13.087
   V component             -5.38         0.00         5.40        1.680       11.415
   W component             -3.59        -0.00         3.58        1.050        7.134
   Horizontal (U&V)         8.44        14.81        20.19        1.915       12.927
   Total                    8.53        14.85        20.26        1.909       12.854

                       Min Reynolds     Mean Reynolds    Max Reynolds    Correlation
   Product             Stress (m/s)^2   Stress (m/s)^2   Stress (m/s)^2  Coefficient
   ----------------    --------------   --------------   --------------  -----------
   u'w'                    -16.036             0.042            15.779         0.021
   u'v'                    -19.455            -0.137            17.897        -0.042
   v'w'                    -11.902             0.058            10.451         0.033


   Friction Velocity (Ustar)  =      0.204 m/s
   Maximum Instantaneous TKE  =     22.432 (m/s)^2
   Maximum Instantaneous CTKE =     10.342 (m/s)^2


Grid Point Variance Summary:

   Y-coord  -70.00  -60.00  -50.00  -40.00  -30.00  -20.00  -10.00    0.00   10.00   20.00   30.00   40.00   50.00   60.00   70.00

   Height   Standard deviation at grid points for the u component:
   224.00    1.920   1.801   1.793   1.723   1.809   1.997   1.982   2.162   2.217   2.186   2.140   2.030   2.224   2.278   2.292
   214.00    1.970   1.882   1.761   1.804   1.779   1.902   2.076   2.156   2.037   2.141   2.027   2.149   2.235   2.134   2.224
   204.00    1.942   1.988   1.939   1.785   1.752   1.734   2.039   1.978   1.914   2.103   2.045   2.040   2.108   2.195   2.167
   194.00    1.987   2.070   1.964   1.843   1.731   1.820   1.945   1.950   1.968   2.071   2.169   2.027   2.083   2.218   2.122
   184.00    2.032   1.932   1.924   1.718   1.731   1.767   1.828   1.792   1.986   1.980   2.070   1.892   1.987   2.080   2.318
   174.00    1.973   1.974   1.941   1.848   1.891   1.879   1.816   1.751   1.906   2.109   2.024   2.023   2.086   2.076   2.335
   164.00    2.026   1.994   1.883   1.952   1.923   1.960   1.869   1.921   1.993   2.126   2.074   2.001   1.974   2.120   2.253
   154.00    2.000   1.932   1.966   2.050   1.964   2.004   1.920   1.926   2.025   2.141   2.082   1.974   2.140   2.286   2.411
   144.00    2.041   2.022   2.176   2.153   2.014   2.003   1.975   2.053   2.059   2.021   1.965   2.169   2.222   2.315   2.312
   134.00    2.138   2.042   1.980   2.143   2.047   2.103   1.892   2.011   1.970   2.046   1.983   2.222   2.217   2.429   2.211
   124.00    2.082   2.018   2.125   2.141   2.062   2.108   1.845   1.959   2.111   2.153   2.049   2.227   2.242   2.279   2.249
   114.00    2.077   2.023   2.036   1.960   1.972   2.081   1.913   1.949   2.141   2.105   2.185   2.179   2.198   2.042   2.128
   104.00    2.230   2.110   2.170   2.012   2.041   1.993   1.952   2.027   1.923   2.119   2.085   1.998   2.138   2.229   2.196
    94.00    2.138   2.052   2.232   2.309   2.138   1.998   2.084   2.108   2.107   2.114   2.164   2.068   2.135   2.206   2.175
    84.00    2.100   2.091   2.193   2.285   2.197   2.198   2.176   2.154   2.237   2.229   2.009   2.119   2.092   2.138   2.165

   Height   Standard deviation at grid points for the v component:
   224.00    1.680   1.680   1.680   1.680   1.680   1.680   1.680   1.680   1.680   1.680   1.680   1.680   1.680   1.680   1.680
   214.00    1.680   1.680   1.680   1.680   1.680   1.680   1.680   1.680   1.680   1.680   1.680   1.680   1.680   1.680   1.680
   204.00    1.680   1.680   1.680   1.680   1.680   1.680   1.680   1.680   1.680   1.680   1.680   1.680   1.680   1.680   1.680
   194.00    1.680   1.680   1.680   1.680   1.680   1.680   1.680   1.680   1.680   1.680   1.680   1.680   1.680   1.680   1.680
   184.00    1.680   1.680   1.680   1.680   1.680   1.680   1.680   1.680   1.680   1.680   1.680   1.680   1.680   1.680   1.680
   174.00    1.680   1.680   1.680   1.680   1.680   1.680   1.680   1.680   1.680   1.680   1.680   1.680   1.680   1.680   1.680
   164.00    1.680   1.680   1.680   1.680   1.680   1.680   1.680   1.680   1.680   1.680   1.680   1.680   1.680   1.680   1.680
   154.00    1.680   1.680   1.680   1.680   1.680   1.680   1.680   1.680   1.680   1.680   1.680   1.680   1.680   1.680   1.680
   144.00    1.680   1.680   1.680   1.680   1.680   1.680   1.680   1.680   1.680   1.680   1.680   1.680   1.680   1.680   1.680
   134.00    1.680   1.680   1.680   1.680   1.680   1.680   1.680   1.680   1.680   1.680   1.680   1.680   1.680   1.680   1.680
   124.00    1.680   1.680   1.680   1.680   1.680   1.680   1.680   1.680   1.680   1.680   1.680   1.680   1.680   1.680   1.680
   114.00    1.680   1.680   1.680   1.680   1.680   1.680   1.680   1.680   1.680   1.680   1.680   1.680   1.680   1.680   1.680
   104.00    1.680   1.680   1.680   1.680   1.680   1.680   1.680   1.680   1.680   1.680   1.680   1.680   1.680   1.680   1.680
    94.00    1.680   1.680   1.680   1.680   1.680   1.680   1.680   1.680   1.680   1.680   1.680   1.680   1.680   1.680   1.680
    84.00    1.680   1.680   1.680   1.680   1.680   1.680   1.680   1.680   1.680   1.680   1.680   1.680   1.680   1.680   1.680

   Height   Standard deviation at grid points for the w component:
   224.00    1.050   1.050   1.050   1.050   1.050   1.050   1.050   1.050   1.050   1.050   1.050   1.050   1.050   1.050   1.050
   214.00    1.050   1.050   1.050   1.050   1.050   1.050   1.050   1.050   1.050   1.050   1.050   1.050   1.050   1.050   1.050
   204.00    1.050   1.050   1.050   1.050   1.050   1.050   1.050   1.050   1.050   1.050   1.050   1.050   1.050   1.050   1.050
   194.00    1.050   1.050   1.050   1.050   1.050   1.050   1.050   1.050   1.050   1.050   1.050   1.050   1.050   1.050   1.050
   184.00    1.050   1.050   1.050   1.050   1.050   1.050   1.050   1.050   1.050   1.050   1.050   1.050   1.050   1.050   1.050
   174.00    1.050   1.050   1.050   1.050   1.050   1.050   1.050   1.050   1.050   1.050   1.050   1.050   1.050   1.050   1.050
   164.00    1.050   1.050   1.050   1.050   1.050   1.050   1.050   1.050   1.050   1.050   1.050   1.050   1.050   1.050   1.050
   154.00    1.050   1.050   1.050   1.050   1.050   1.050   1.050   1.050   1.050   1.050   1.050   1.050   1.050   1.050   1.050
   144.00    1.050   1.050   1.050   1.050   1.050   1.050   1.050   1.050   1.050   1.050   1.050   1.050   1.050   1.050   1.050
   134.00    1.050   1.050   1.050   1.050   1.050   1.050   1.050   1.050   1.050   1.050   1.050   1.050   1.050   1.050   1.050
   124.00    1.050   1.050   1.050   1.050   1.050   1.050   1.050   1.050   1.050   1.050   1.050   1.050   1.050   1.050   1.050
   114.00    1.050   1.050   1.050   1.050   1.050   1.050   1.050   1.050   1.050   1.050   1.050   1.050   1.050   1.050   1.050
   104.00    1.050   1.050   1.050   1.050   1.050   1.050   1.050   1.050   1.050   1.050   1.050   1.050   1.050   1.050   1.050
    94.00    1.050   1.050   1.050   1.050   1.050   1.050   1.050   1.050   1.050   1.050   1.050   1.050   1.050   1.050   1.050
    84.00    1.050   1.050   1.050   1.050   1.050   1.050   1.050   1.050   1.050   1.050   1.050   1.050   1.050   1.050   1.050

   Mean standard deviation across all grid points:
      u component:    2.050 m/s
      v component:    1.680 m/s
      w component:    1.050 m/s


U-component (X) statistics from the interpolated hub point:

   Mean =  14.7176 m/s
   TI   =  13.0869 %


Processing complete.  7.8313 CPU seconds used.
