
This summary file was generated by TurbSim (v2.00.01a-bjj, 14-Oct-2014) on 14-Jan-2016 at 10:45:31.


Runtime Options:

 338713836  Random seed #1
**********  Random seed #2
         F  Output binary HH turbulence parameters?
         F  Output formatted turbulence parameters?
         F  Output AeroDyn HH files?
         T  Output AeroDyn FF files?
         F  Output BLADED FF files?
         F  Output tower data?
         F  Output formatted FF files?
         F  Output coherent turbulence time step file?
         T  Clockwise rotation when looking downwind?
 0 -  NONE  IEC turbulence models scaled to exact specified standard deviation


Turbine/Model Specifications:

        15  Vertical grid-point matrix dimension
        15  Horizontal grid-point matrix dimension
     0.050  Time step [seconds]
   630.000  Analysis time [seconds]
   630.000  Usable output time [seconds]
   154.000  Hub height [m]
   140.000  Grid height [m]
   140.000  Grid width [m]
     0.000  Vertical flow angle [degrees]
     0.000  Horizontal flow angle [degrees]


Meteorological Boundary Conditions:

    USRINP  Uniform user-input spectral model
       N/A  IEC standard
       N/A  IEC turbulence characteristic
       N/A  IEC turbulence type
       N/A  IEC Extreme Turbulence Model (ETM) "c" parameter [m/s]
       PL   Wind profile type
   100.000  Reference height [m]
    13.500  Reference wind speed [m/s]
       N/A  Jet height [m]
     0.200  Power law exponent
     0.030  Surface roughness length [m]


Non-IEC Meteorological Boundary Conditions:

    45.000  Site latitude [degrees]
     0.050  Gradient Richardson number
     0.639  Friction or shear velocity [m/s]
       N/A  Mixing layer depth [m]
       N/A  Mean hub u'w' Reynolds stress
       N/A  Mean hub u'v' Reynolds stress
       N/A  Mean hub v'w' Reynolds stress


Spatial Coherence Models:

       IEC  u-component coherence model
      NONE  v-component coherence model
      NONE  w-component coherence model
(   12.000, 0.353E-03)  u-component coherence parameters
                   N/A  v-component coherence parameters
                   N/A  w-component coherence parameters
       N/A  Coherence exponent


You have requested that the following file(s) be generated:

   WP5.0A04V00\WP5.0A04V00_2.bts (AeroDyn/TurbSim full-field wind file)


Turbulence Simulation Scaling Parameter Summary:

   Turbulence model used                            =  Uniform user-input
   Gradient Richardson number                       =    0.050
   Monin-Obukhov (M-O) z/L parameter                =    0.067
   Monin-Obukhov (M-O) length scale                 = 2310.000 m
   Mean wind speed at hub height                    =   14.718 m/s

   Wind profile type                                =  Power law
   Power law exponent                               =    0.200
   Mean shear across rotor disk                     =    0.020 (m/s)/m
   Assumed rotor diameter                           =  140.000 m
   Surface roughness length                         =    0.030 m

   Nyquist frequency of turbulent wind field        =   10.000 Hz

   Number of time steps in the FFT                  =    12600
   Number of time steps output                      =    12600
   Number of points simulated                       =      225


Mean Flow Angles:

   Vertical   =   0.0 degrees
   Horizontal =   0.0 degrees

Mean Wind Speed Profile:

   Height    Wind Speed   Horizontal Angle  Vertical Angle  U-comp (X)   V-comp (Y)   W-comp (Z)
     (m)        (m/s)         (degrees)       (degrees)       (m/s)        (m/s)        (m/s)   
   ------    ----------   ----------------  --------------  ----------   ----------   ----------
    224.0       15.86            0.00            0.00         15.86         0.00         0.00
    214.0       15.72            0.00            0.00         15.72         0.00         0.00
    204.0       15.57            0.00            0.00         15.57         0.00         0.00
    194.0       15.41            0.00            0.00         15.41         0.00         0.00
    184.0       15.25            0.00            0.00         15.25         0.00         0.00
    174.0       15.08            0.00            0.00         15.08         0.00         0.00
    164.0       14.90            0.00            0.00         14.90         0.00         0.00
    154.0       14.72            0.00            0.00         14.72         0.00         0.00
    144.0       14.52            0.00            0.00         14.52         0.00         0.00
    134.0       14.31            0.00            0.00         14.31         0.00         0.00
    124.0       14.09            0.00            0.00         14.09         0.00         0.00
    114.0       13.86            0.00            0.00         13.86         0.00         0.00
    104.0       13.61            0.00            0.00         13.61         0.00         0.00
     94.0       13.33            0.00            0.00         13.33         0.00         0.00
     84.0       13.04            0.00            0.00         13.04         0.00         0.00


Harvested Random Seeds after Generation of the Random Numbers:

   1791072441 Harvested seed # 1
   1885195059 Harvested seed # 2


Hub-Height Simulated Turbulence Statistical Summary:

   Type of Wind        Min (m/s)   Mean (m/s)    Max (m/s)  Sigma (m/s)       TI (%)
   ----------------    ---------   ----------    ---------  -----------       ------
   Longitudinal (u)         8.69        14.72        21.48        1.919       13.040
   Lateral (v)             -6.52         0.00         5.77        1.680       11.415
   Vertical (w)            -4.59        -0.00         3.84        1.050        7.134
   U component              8.69        14.72        21.48        1.919       13.040
   V component             -6.52         0.00         5.77        1.680       11.415
   W component             -4.59        -0.00         3.84        1.050        7.134
   Horizontal (U&V)         8.92        14.81        21.48        1.922       12.975
   Total                    8.93        14.85        21.53        1.917       12.908

                       Min Reynolds     Mean Reynolds    Max Reynolds    Correlation
   Product             Stress (m/s)^2   Stress (m/s)^2   Stress (m/s)^2  Coefficient
   ----------------    --------------   --------------   --------------  -----------
   u'w'                    -15.630            -0.079            15.544        -0.039
   u'v'                    -21.375             0.075            16.608         0.023
   v'w'                    -11.406             0.025            15.341         0.014


   Friction Velocity (Ustar)  =      0.281 m/s
   Maximum Instantaneous TKE  =     25.095 (m/s)^2
   Maximum Instantaneous CTKE =     11.170 (m/s)^2


Grid Point Variance Summary:

   Y-coord  -70.00  -60.00  -50.00  -40.00  -30.00  -20.00  -10.00    0.00   10.00   20.00   30.00   40.00   50.00   60.00   70.00

   Height   Standard deviation at grid points for the u component:
   224.00    1.733   1.771   1.924   2.015   2.147   2.234   2.072   2.030   2.084   2.034   1.993   1.874   2.035   2.014   1.988
   214.00    1.831   1.868   2.031   2.076   2.185   2.101   2.005   1.959   2.018   2.059   2.048   2.209   2.093   2.014   2.122
   204.00    1.778   1.881   1.946   2.013   1.917   1.984   1.975   1.987   2.048   2.107   2.076   2.213   2.170   1.984   2.095
   194.00    1.907   1.827   1.832   2.047   1.920   2.005   1.954   1.928   1.887   1.992   2.103   2.107   1.982   2.135   2.007
   184.00    1.861   1.850   2.003   2.102   2.036   1.955   1.871   1.980   1.906   1.977   1.976   2.010   2.035   2.038   2.038
   174.00    1.938   1.940   1.956   1.934   1.971   1.996   1.904   1.843   1.859   1.914   1.901   2.002   1.978   1.870   1.844
   164.00    1.769   1.920   1.962   2.027   1.976   1.908   1.945   1.884   1.891   1.760   1.821   1.808   1.867   1.809   1.799
   154.00    1.654   1.883   1.927   1.977   1.992   1.760   1.925   1.919   1.772   1.766   1.808   1.739   1.821   1.834   1.899
   144.00    1.727   1.821   1.877   1.971   1.978   1.987   1.894   1.795   1.848   1.862   1.824   1.878   1.771   1.890   1.959
   134.00    1.811   1.849   1.937   1.932   1.934   1.959   1.938   1.719   1.791   1.860   1.857   1.979   1.820   1.911   1.932
   124.00    1.744   1.749   1.857   1.905   2.009   2.007   1.941   1.791   1.787   1.893   1.921   2.038   1.971   2.117   2.145
   114.00    1.952   2.009   1.917   1.899   1.903   1.993   1.963   1.824   1.941   1.902   1.846   2.031   2.125   2.216   2.169
   104.00    1.971   1.870   1.808   1.865   1.889   1.830   1.861   1.965   2.045   1.979   1.872   2.018   2.222   2.154   2.123
    94.00    1.982   2.018   1.873   1.900   1.877   1.814   1.938   1.955   1.989   1.887   1.757   1.954   2.004   1.951   2.012
    84.00    2.100   2.109   2.071   2.058   1.901   1.962   1.932   1.805   1.960   1.863   1.897   1.913   1.890   1.853   1.844

   Height   Standard deviation at grid points for the v component:
   224.00    1.680   1.680   1.680   1.680   1.680   1.680   1.680   1.680   1.680   1.680   1.680   1.680   1.680   1.680   1.680
   214.00    1.680   1.680   1.680   1.680   1.680   1.680   1.680   1.680   1.680   1.680   1.680   1.680   1.680   1.680   1.680
   204.00    1.680   1.680   1.680   1.680   1.680   1.680   1.680   1.680   1.680   1.680   1.680   1.680   1.680   1.680   1.680
   194.00    1.680   1.680   1.680   1.680   1.680   1.680   1.680   1.680   1.680   1.680   1.680   1.680   1.680   1.680   1.680
   184.00    1.680   1.680   1.680   1.680   1.680   1.680   1.680   1.680   1.680   1.680   1.680   1.680   1.680   1.680   1.680
   174.00    1.680   1.680   1.680   1.680   1.680   1.680   1.680   1.680   1.680   1.680   1.680   1.680   1.680   1.680   1.680
   164.00    1.680   1.680   1.680   1.680   1.680   1.680   1.680   1.680   1.680   1.680   1.680   1.680   1.680   1.680   1.680
   154.00    1.680   1.680   1.680   1.680   1.680   1.680   1.680   1.680   1.680   1.680   1.680   1.680   1.680   1.680   1.680
   144.00    1.680   1.680   1.680   1.680   1.680   1.680   1.680   1.680   1.680   1.680   1.680   1.680   1.680   1.680   1.680
   134.00    1.680   1.680   1.680   1.680   1.680   1.680   1.680   1.680   1.680   1.680   1.680   1.680   1.680   1.680   1.680
   124.00    1.680   1.680   1.680   1.680   1.680   1.680   1.680   1.680   1.680   1.680   1.680   1.680   1.680   1.680   1.680
   114.00    1.680   1.680   1.680   1.680   1.680   1.680   1.680   1.680   1.680   1.680   1.680   1.680   1.680   1.680   1.680
   104.00    1.680   1.680   1.680   1.680   1.680   1.680   1.680   1.680   1.680   1.680   1.680   1.680   1.680   1.680   1.680
    94.00    1.680   1.680   1.680   1.680   1.680   1.680   1.680   1.680   1.680   1.680   1.680   1.680   1.680   1.680   1.680
    84.00    1.680   1.680   1.680   1.680   1.680   1.680   1.680   1.680   1.680   1.680   1.680   1.680   1.680   1.680   1.680

   Height   Standard deviation at grid points for the w component:
   224.00    1.050   1.050   1.050   1.050   1.050   1.050   1.050   1.050   1.050   1.050   1.050   1.050   1.050   1.050   1.050
   214.00    1.050   1.050   1.050   1.050   1.050   1.050   1.050   1.050   1.050   1.050   1.050   1.050   1.050   1.050   1.050
   204.00    1.050   1.050   1.050   1.050   1.050   1.050   1.050   1.050   1.050   1.050   1.050   1.050   1.050   1.050   1.050
   194.00    1.050   1.050   1.050   1.050   1.050   1.050   1.050   1.050   1.050   1.050   1.050   1.050   1.050   1.050   1.050
   184.00    1.050   1.050   1.050   1.050   1.050   1.050   1.050   1.050   1.050   1.050   1.050   1.050   1.050   1.050   1.050
   174.00    1.050   1.050   1.050   1.050   1.050   1.050   1.050   1.050   1.050   1.050   1.050   1.050   1.050   1.050   1.050
   164.00    1.050   1.050   1.050   1.050   1.050   1.050   1.050   1.050   1.050   1.050   1.050   1.050   1.050   1.050   1.050
   154.00    1.050   1.050   1.050   1.050   1.050   1.050   1.050   1.050   1.050   1.050   1.050   1.050   1.050   1.050   1.050
   144.00    1.050   1.050   1.050   1.050   1.050   1.050   1.050   1.050   1.050   1.050   1.050   1.050   1.050   1.050   1.050
   134.00    1.050   1.050   1.050   1.050   1.050   1.050   1.050   1.050   1.050   1.050   1.050   1.050   1.050   1.050   1.050
   124.00    1.050   1.050   1.050   1.050   1.050   1.050   1.050   1.050   1.050   1.050   1.050   1.050   1.050   1.050   1.050
   114.00    1.050   1.050   1.050   1.050   1.050   1.050   1.050   1.050   1.050   1.050   1.050   1.050   1.050   1.050   1.050
   104.00    1.050   1.050   1.050   1.050   1.050   1.050   1.050   1.050   1.050   1.050   1.050   1.050   1.050   1.050   1.050
    94.00    1.050   1.050   1.050   1.050   1.050   1.050   1.050   1.050   1.050   1.050   1.050   1.050   1.050   1.050   1.050
    84.00    1.050   1.050   1.050   1.050   1.050   1.050   1.050   1.050   1.050   1.050   1.050   1.050   1.050   1.050   1.050

   Mean standard deviation across all grid points:
      u component:    1.943 m/s
      v component:    1.680 m/s
      w component:    1.050 m/s


U-component (X) statistics from the interpolated hub point:

   Mean =  14.7176 m/s
   TI   =  13.0399 %


Processing complete.  7.8625 CPU seconds used.
