
This summary file was generated by TurbSim (v2.00.01a-bjj, 14-Oct-2014) on 17-Jan-2016 at 18:04:58.


Runtime Options:

 745114648  Random seed #1
-154794614  Random seed #2
         F  Output binary HH turbulence parameters?
         F  Output formatted turbulence parameters?
         F  Output AeroDyn HH files?
         T  Output AeroDyn FF files?
         F  Output BLADED FF files?
         F  Output tower data?
         F  Output formatted FF files?
         F  Output coherent turbulence time step file?
         T  Clockwise rotation when looking downwind?
 0 -  NONE  IEC turbulence models scaled to exact specified standard deviation


Turbine/Model Specifications:

        15  Vertical grid-point matrix dimension
        15  Horizontal grid-point matrix dimension
     0.050  Time step [seconds]
   630.000  Analysis time [seconds]
   630.000  Usable output time [seconds]
   154.000  Hub height [m]
   140.000  Grid height [m]
   140.000  Grid width [m]
     0.000  Vertical flow angle [degrees]
     0.000  Horizontal flow angle [degrees]


Meteorological Boundary Conditions:

    USRINP  Uniform user-input spectral model
       N/A  IEC standard
       N/A  IEC turbulence characteristic
       N/A  IEC turbulence type
       N/A  IEC Extreme Turbulence Model (ETM) "c" parameter [m/s]
       PL   Wind profile type
   100.000  Reference height [m]
    15.300  Reference wind speed [m/s]
       N/A  Jet height [m]
     0.200  Power law exponent
     0.030  Surface roughness length [m]


Non-IEC Meteorological Boundary Conditions:

    45.000  Site latitude [degrees]
     0.050  Gradient Richardson number
     0.725  Friction or shear velocity [m/s]
       N/A  Mixing layer depth [m]
       N/A  Mean hub u'w' Reynolds stress
       N/A  Mean hub u'v' Reynolds stress
       N/A  Mean hub v'w' Reynolds stress


Spatial Coherence Models:

       IEC  u-component coherence model
      NONE  v-component coherence model
      NONE  w-component coherence model
(   12.000, 0.353E-03)  u-component coherence parameters
                   N/A  v-component coherence parameters
                   N/A  w-component coherence parameters
       N/A  Coherence exponent


You have requested that the following file(s) be generated:

   WP5.0A04V00\WP5.0A04V00_4.bts (AeroDyn/TurbSim full-field wind file)


Turbulence Simulation Scaling Parameter Summary:

   Turbulence model used                            =  Uniform user-input
   Gradient Richardson number                       =    0.050
   Monin-Obukhov (M-O) z/L parameter                =    0.067
   Monin-Obukhov (M-O) length scale                 = 2310.000 m
   Mean wind speed at hub height                    =   16.680 m/s

   Wind profile type                                =  Power law
   Power law exponent                               =    0.200
   Mean shear across rotor disk                     =    0.023 (m/s)/m
   Assumed rotor diameter                           =  140.000 m
   Surface roughness length                         =    0.030 m

   Nyquist frequency of turbulent wind field        =   10.000 Hz

   Number of time steps in the FFT                  =    12600
   Number of time steps output                      =    12600
   Number of points simulated                       =      225


Mean Flow Angles:

   Vertical   =   0.0 degrees
   Horizontal =   0.0 degrees

Mean Wind Speed Profile:

   Height    Wind Speed   Horizontal Angle  Vertical Angle  U-comp (X)   V-comp (Y)   W-comp (Z)
     (m)        (m/s)         (degrees)       (degrees)       (m/s)        (m/s)        (m/s)   
   ------    ----------   ----------------  --------------  ----------   ----------   ----------
    224.0       17.98            0.00            0.00         17.98         0.00         0.00
    214.0       17.81            0.00            0.00         17.81         0.00         0.00
    204.0       17.64            0.00            0.00         17.64         0.00         0.00
    194.0       17.47            0.00            0.00         17.47         0.00         0.00
    184.0       17.28            0.00            0.00         17.28         0.00         0.00
    174.0       17.09            0.00            0.00         17.09         0.00         0.00
    164.0       16.89            0.00            0.00         16.89         0.00         0.00
    154.0       16.68            0.00            0.00         16.68         0.00         0.00
    144.0       16.46            0.00            0.00         16.46         0.00         0.00
    134.0       16.22            0.00            0.00         16.22         0.00         0.00
    124.0       15.97            0.00            0.00         15.97         0.00         0.00
    114.0       15.71            0.00            0.00         15.71         0.00         0.00
    104.0       15.42            0.00            0.00         15.42         0.00         0.00
     94.0       15.11            0.00            0.00         15.11         0.00         0.00
     84.0       14.78            0.00            0.00         14.78         0.00         0.00


Harvested Random Seeds after Generation of the Random Numbers:

   1386057037 Harvested seed # 1
    311436520 Harvested seed # 2


Hub-Height Simulated Turbulence Statistical Summary:

   Type of Wind        Min (m/s)   Mean (m/s)    Max (m/s)  Sigma (m/s)       TI (%)
   ----------------    ---------   ----------    ---------  -----------       ------
   Longitudinal (u)         9.87        16.68        22.54        1.856       11.126
   Lateral (v)             -4.93         0.00         5.38        1.680       10.072
   Vertical (w)            -3.48        -0.00         3.73        1.050        6.295
   U component              9.87        16.68        22.54        1.856       11.126
   V component             -4.93         0.00         5.38        1.680       10.072
   W component             -3.48        -0.00         3.73        1.050        6.295
   Horizontal (U&V)         9.88        16.77        22.63        1.845       11.007
   Total                    9.92        16.80        22.69        1.841       10.958

                       Min Reynolds     Mean Reynolds    Max Reynolds    Correlation
   Product             Stress (m/s)^2   Stress (m/s)^2   Stress (m/s)^2  Coefficient
   ----------------    --------------   --------------   --------------  -----------
   u'w'                    -16.573            -0.103            12.567        -0.053
   u'v'                    -20.646            -0.258            17.249        -0.083
   v'w'                    -12.964             0.016            11.060         0.009


   Friction Velocity (Ustar)  =      0.322 m/s
   Maximum Instantaneous TKE  =     23.651 (m/s)^2
   Maximum Instantaneous CTKE =     11.109 (m/s)^2


Grid Point Variance Summary:

   Y-coord  -70.00  -60.00  -50.00  -40.00  -30.00  -20.00  -10.00    0.00   10.00   20.00   30.00   40.00   50.00   60.00   70.00

   Height   Standard deviation at grid points for the u component:
   224.00    1.935   1.889   1.901   1.891   1.913   2.047   1.998   2.155   2.150   2.093   2.094   2.014   2.185   2.221   2.249
   214.00    1.981   1.899   1.883   1.907   1.942   1.970   2.141   2.208   2.063   2.118   1.958   2.096   2.163   2.102   2.120
   204.00    1.947   2.089   1.985   1.943   1.895   1.844   2.100   2.046   1.932   2.067   1.996   1.997   2.076   2.098   2.082
   194.00    1.919   2.120   2.043   1.917   1.907   1.903   1.960   2.014   2.061   2.101   2.194   2.003   1.998   2.091   2.040
   184.00    2.039   2.016   1.956   1.802   1.907   1.795   1.916   1.893   2.018   2.000   2.081   1.892   1.921   1.965   2.233
   174.00    1.975   2.016   1.998   1.968   2.000   1.898   1.870   1.771   1.981   2.134   1.999   2.064   1.988   2.022   2.301
   164.00    2.058   2.036   1.953   2.006   1.929   1.955   1.874   1.876   2.037   2.153   2.109   2.004   1.962   2.128   2.255
   154.00    2.001   1.908   1.988   2.061   1.933   1.951   1.837   1.856   2.045   2.150   2.125   1.948   2.115   2.193   2.284
   144.00    1.979   1.957   2.144   2.212   1.976   1.930   1.942   1.955   2.068   1.996   1.969   2.119   2.167   2.215   2.172
   134.00    1.993   1.990   1.968   2.157   2.076   2.053   1.958   1.991   2.007   1.972   1.959   2.149   2.174   2.366   2.129
   124.00    1.993   1.992   2.079   2.128   2.083   2.084   1.970   2.028   2.146   2.146   2.062   2.186   2.183   2.193   2.163
   114.00    2.042   1.992   1.984   1.953   1.995   2.036   1.983   2.028   2.185   2.111   2.184   2.215   2.144   1.965   2.056
   104.00    2.165   2.063   2.035   1.888   1.976   2.072   2.022   2.065   1.925   2.159   2.115   2.014   2.106   2.112   2.057
    94.00    2.126   1.998   2.105   2.141   2.036   1.986   2.082   2.099   2.137   2.130   2.216   2.019   2.065   2.113   2.135
    84.00    2.100   2.018   2.085   2.130   2.104   2.134   2.158   2.150   2.195   2.272   2.083   2.168   2.082   2.175   2.173

   Height   Standard deviation at grid points for the v component:
   224.00    1.680   1.680   1.680   1.680   1.680   1.680   1.680   1.680   1.680   1.680   1.680   1.680   1.680   1.680   1.680
   214.00    1.680   1.680   1.680   1.680   1.680   1.680   1.680   1.680   1.680   1.680   1.680   1.680   1.680   1.680   1.680
   204.00    1.680   1.680   1.680   1.680   1.680   1.680   1.680   1.680   1.680   1.680   1.680   1.680   1.680   1.680   1.680
   194.00    1.680   1.680   1.680   1.680   1.680   1.680   1.680   1.680   1.680   1.680   1.680   1.680   1.680   1.680   1.680
   184.00    1.680   1.680   1.680   1.680   1.680   1.680   1.680   1.680   1.680   1.680   1.680   1.680   1.680   1.680   1.680
   174.00    1.680   1.680   1.680   1.680   1.680   1.680   1.680   1.680   1.680   1.680   1.680   1.680   1.680   1.680   1.680
   164.00    1.680   1.680   1.680   1.680   1.680   1.680   1.680   1.680   1.680   1.680   1.680   1.680   1.680   1.680   1.680
   154.00    1.680   1.680   1.680   1.680   1.680   1.680   1.680   1.680   1.680   1.680   1.680   1.680   1.680   1.680   1.680
   144.00    1.680   1.680   1.680   1.680   1.680   1.680   1.680   1.680   1.680   1.680   1.680   1.680   1.680   1.680   1.680
   134.00    1.680   1.680   1.680   1.680   1.680   1.680   1.680   1.680   1.680   1.680   1.680   1.680   1.680   1.680   1.680
   124.00    1.680   1.680   1.680   1.680   1.680   1.680   1.680   1.680   1.680   1.680   1.680   1.680   1.680   1.680   1.680
   114.00    1.680   1.680   1.680   1.680   1.680   1.680   1.680   1.680   1.680   1.680   1.680   1.680   1.680   1.680   1.680
   104.00    1.680   1.680   1.680   1.680   1.680   1.680   1.680   1.680   1.680   1.680   1.680   1.680   1.680   1.680   1.680
    94.00    1.680   1.680   1.680   1.680   1.680   1.680   1.680   1.680   1.680   1.680   1.680   1.680   1.680   1.680   1.680
    84.00    1.680   1.680   1.680   1.680   1.680   1.680   1.680   1.680   1.680   1.680   1.680   1.680   1.680   1.680   1.680

   Height   Standard deviation at grid points for the w component:
   224.00    1.050   1.050   1.050   1.050   1.050   1.050   1.050   1.050   1.050   1.050   1.050   1.050   1.050   1.050   1.050
   214.00    1.050   1.050   1.050   1.050   1.050   1.050   1.050   1.050   1.050   1.050   1.050   1.050   1.050   1.050   1.050
   204.00    1.050   1.050   1.050   1.050   1.050   1.050   1.050   1.050   1.050   1.050   1.050   1.050   1.050   1.050   1.050
   194.00    1.050   1.050   1.050   1.050   1.050   1.050   1.050   1.050   1.050   1.050   1.050   1.050   1.050   1.050   1.050
   184.00    1.050   1.050   1.050   1.050   1.050   1.050   1.050   1.050   1.050   1.050   1.050   1.050   1.050   1.050   1.050
   174.00    1.050   1.050   1.050   1.050   1.050   1.050   1.050   1.050   1.050   1.050   1.050   1.050   1.050   1.050   1.050
   164.00    1.050   1.050   1.050   1.050   1.050   1.050   1.050   1.050   1.050   1.050   1.050   1.050   1.050   1.050   1.050
   154.00    1.050   1.050   1.050   1.050   1.050   1.050   1.050   1.050   1.050   1.050   1.050   1.050   1.050   1.050   1.050
   144.00    1.050   1.050   1.050   1.050   1.050   1.050   1.050   1.050   1.050   1.050   1.050   1.050   1.050   1.050   1.050
   134.00    1.050   1.050   1.050   1.050   1.050   1.050   1.050   1.050   1.050   1.050   1.050   1.050   1.050   1.050   1.050
   124.00    1.050   1.050   1.050   1.050   1.050   1.050   1.050   1.050   1.050   1.050   1.050   1.050   1.050   1.050   1.050
   114.00    1.050   1.050   1.050   1.050   1.050   1.050   1.050   1.050   1.050   1.050   1.050   1.050   1.050   1.050   1.050
   104.00    1.050   1.050   1.050   1.050   1.050   1.050   1.050   1.050   1.050   1.050   1.050   1.050   1.050   1.050   1.050
    94.00    1.050   1.050   1.050   1.050   1.050   1.050   1.050   1.050   1.050   1.050   1.050   1.050   1.050   1.050   1.050
    84.00    1.050   1.050   1.050   1.050   1.050   1.050   1.050   1.050   1.050   1.050   1.050   1.050   1.050   1.050   1.050

   Mean standard deviation across all grid points:
      u component:    2.045 m/s
      v component:    1.680 m/s
      w component:    1.050 m/s


U-component (X) statistics from the interpolated hub point:

   Mean =  16.6800 m/s
   TI   =  11.1260 %


Processing complete.  7.6128 CPU seconds used.
