
This summary file was generated by TurbSim (v2.00.01a-bjj, 14-Oct-2014) on 08-Apr-2015 at 10:23:23.


Runtime Options:

    123456  Random seed #1
    789012  Random seed #2
         F  Output binary HH turbulence parameters?
         F  Output formatted turbulence parameters?
         F  Output AeroDyn HH files?
         T  Output AeroDyn FF files?
         T  Output BLADED FF files?
         F  Output tower data?
         F  Output formatted FF files?
         F  Output coherent turbulence time step file?
         T  Clockwise rotation when looking downwind?
 0 -  NONE  IEC turbulence models scaled to exact specified standard deviation


Turbine/Model Specifications:

        10  Vertical grid-point matrix dimension
        10  Horizontal grid-point matrix dimension
     0.050  Time step [seconds]
   600.000  Analysis time [seconds]
   600.000  Usable output time [seconds]
    90.000  Hub height [m]
   140.000  Grid height [m]
   140.000  Grid width [m]
     0.000  Vertical flow angle [degrees]
     0.000  Horizontal flow angle [degrees]


Meteorological Boundary Conditions:

    IECKAI  IEC Kaimal spectral model
         1  IEC standard: IEC 61400-1 Ed. 3: 2005
         C  IEC turbulence characteristic
       NTM  IEC Normal Turbulence Model
       N/A  IEC Extreme Turbulence Model (ETM) "c" parameter [m/s]
       IEC  Wind profile type
    90.000  Reference height [m]
    10.000  Reference wind speed [m/s]
       N/A  Jet height [m]
     0.200  Power law exponent
     0.030  Surface roughness length [m]


Non-IEC Meteorological Boundary Conditions:

       N/A  Site latitude [degrees]
       N/A  Gradient Richardson number
       N/A  Friction or shear velocity [m/s]
       N/A  Mixing layer depth [m]
       N/A  Mean hub u'w' Reynolds stress
       N/A  Mean hub u'v' Reynolds stress
       N/A  Mean hub v'w' Reynolds stress


Spatial Coherence Models:

       IEC  u-component coherence model
      NONE  v-component coherence model
      NONE  w-component coherence model
(   12.000, 0.353E-03)  u-component coherence parameters
                   N/A  v-component coherence parameters
                   N/A  w-component coherence parameters
       N/A  Coherence exponent


You have requested that the following file(s) be generated:

   2-myflag/10pts_NoSc.bts (AeroDyn/TurbSim full-field wind file)
   2-myflag/10pts_NoSc.wnd (AeroDyn/BLADED full-field wnd file)


Turbulence Simulation Scaling Parameter Summary:

   Turbulence model used                            =  IEC Kaimal
   Turbulence characteristic                        =  C
   IEC turbulence type                              =  Normal Turbulence Model
   IEC standard                                     =  IEC 61400-1 Ed. 3: 2005
   Mean wind speed at hub height                    =   10.000 m/s
   Expected value of turbulence intensity at 15 m/s =   12.000%
   Characteristic value of standard deviation       =    1.572 m/s
   Turbulence scale                                 =   42.000 m
   u-component integral scale                       =  340.200 m
   Coherency scale                                  =  340.200 m
   Characteristic value of hub turbulence intensity =   15.720%
   Gradient Richardson number                       =    0.000

   Wind profile type                                =  Power law on rotor disk, logarithmic elsewhere
   Power law exponent                               =    0.200
   Mean shear across rotor disk                     =    0.027 (m/s)/m
   Assumed rotor diameter                           =  140.000 m
   Surface roughness length                         =    0.030 m

   Nyquist frequency of turbulent wind field        =   10.000 Hz

   Number of time steps in the FFT                  =    12000
   Number of time steps output                      =    12000
   Number of points simulated                       =      101


Mean Flow Angles:

   Vertical   =   0.0 degrees
   Horizontal =   0.0 degrees

Mean Wind Speed Profile:

   Height    Wind Speed   Horizontal Angle  Vertical Angle  U-comp (X)   V-comp (Y)   W-comp (Z)
     (m)        (m/s)         (degrees)       (degrees)       (m/s)        (m/s)        (m/s)   
   ------    ----------   ----------------  --------------  ----------   ----------   ----------
    160.0       11.22            0.00            0.00         11.22         0.00         0.00
    144.4       10.99            0.00            0.00         10.99         0.00         0.00
    128.9       10.74            0.00            0.00         10.74         0.00         0.00
    113.3       10.47            0.00            0.00         10.47         0.00         0.00
     97.8       10.17            0.00            0.00         10.17         0.00         0.00
     90.0       10.00            0.00            0.00         10.00         0.00         0.00
     82.2        9.82            0.00            0.00          9.82         0.00         0.00
     66.7        9.42            0.00            0.00          9.42         0.00         0.00
     51.1        8.93            0.00            0.00          8.93         0.00         0.00
     35.6        8.30            0.00            0.00          8.30         0.00         0.00
     20.0        7.40            0.00            0.00          7.40         0.00         0.00


Harvested Random Seeds after Generation of the Random Numbers:

      9364186 Harvested seed # 1
      2165325 Harvested seed # 2
      4252226 Harvested seed # 3
     13503108 Harvested seed # 4
        57973 Harvested seed # 5
      2296340 Harvested seed # 6
      3400217 Harvested seed # 7
      6031917 Harvested seed # 8
    948843226 Harvested seed # 9
   1361143885 Harvested seed #10
    775998530 Harvested seed #11
   -473032828 Harvested seed #12


Hub-Height Simulated Turbulence Statistical Summary:

   Type of Wind        Min (m/s)   Mean (m/s)    Max (m/s)  Sigma (m/s)       TI (%)
   ----------------    ---------   ----------    ---------  -----------       ------
   Longitudinal (u)         5.94        10.00        14.43        1.556       15.560
   Lateral (v)             -4.42         0.00         3.92        1.226       12.261
   Vertical (w)            -2.75         0.00         2.96        0.769        7.693
   U component              5.94        10.00        14.43        1.556       15.560
   V component             -4.42         0.00         3.92        1.226       12.261
   W component             -2.75         0.00         2.96        0.769        7.693
   Horizontal (U&V)         5.99        10.08        14.49        1.538       15.262
   Total                    6.00        10.11        14.62        1.537       15.208

                       Min Reynolds     Mean Reynolds    Max Reynolds    Correlation
   Product             Stress (m/s)^2   Stress (m/s)^2   Stress (m/s)^2  Coefficient
   ----------------    --------------   --------------   --------------  -----------
   u'w'                     -7.772            -0.119            10.701        -0.099
   u'v'                    -11.147             0.147            11.811         0.077
   v'w'                    -10.182            -0.143             6.464        -0.151


   Friction Velocity (Ustar)  =      0.345 m/s
   Maximum Instantaneous TKE  =     13.153 (m/s)^2
   Maximum Instantaneous CTKE =      7.003 (m/s)^2


Grid Point Variance Summary:

   Y-coord  -70.00  -54.44  -38.89  -23.33   -7.78    7.78   23.33   38.89   54.44   70.00

   Height   Standard deviation at grid points for the u component:
   160.00    1.573   1.629   1.688   1.674   1.549   1.530   1.401   1.520   1.702   1.816
   144.44    1.569   1.673   1.706   1.696   1.728   1.698   1.681   1.636   1.820   1.840
   128.89    1.648   1.699   1.464   1.557   1.608   1.585   1.670   1.824   1.941   1.804
   113.33    1.454   1.653   1.455   1.759   1.740   1.613   1.671   1.687   1.829   1.896
    97.78    1.365   1.557   1.650   1.663   1.560   1.478   1.660   1.875   1.905   1.822
    82.22    1.609   1.494   1.540   1.604   1.604   1.579   1.754   1.717   1.842   1.712
    66.67    1.632   1.554   1.516   1.497   1.686   1.607   1.635   1.711   1.810   1.546
    51.11    1.563   1.663   1.510   1.636   1.644   1.667   1.668   1.722   1.662   1.582
    35.56    1.557   1.495   1.611   1.676   1.591   1.617   1.754   1.555   1.688   1.588
    20.00    1.484   1.482   1.513   1.496   1.562   1.540   1.577   1.482   1.607   1.463

   Height   Standard deviation at grid points for the v component:
   160.00    1.226   1.226   1.226   1.226   1.226   1.226   1.226   1.226   1.226   1.226
   144.44    1.226   1.226   1.226   1.226   1.226   1.226   1.226   1.226   1.226   1.226
   128.89    1.226   1.226   1.226   1.226   1.226   1.226   1.226   1.226   1.226   1.226
   113.33    1.226   1.226   1.226   1.226   1.226   1.226   1.226   1.226   1.226   1.226
    97.78    1.226   1.226   1.226   1.226   1.226   1.226   1.226   1.226   1.226   1.226
    82.22    1.226   1.226   1.226   1.226   1.226   1.226   1.226   1.226   1.226   1.226
    66.67    1.226   1.226   1.226   1.226   1.226   1.226   1.226   1.226   1.226   1.226
    51.11    1.226   1.226   1.226   1.226   1.226   1.226   1.226   1.226   1.226   1.226
    35.56    1.226   1.226   1.226   1.226   1.226   1.226   1.226   1.226   1.226   1.226
    20.00    1.226   1.226   1.226   1.226   1.226   1.226   1.226   1.226   1.226   1.226

   Height   Standard deviation at grid points for the w component:
   160.00    0.769   0.769   0.769   0.769   0.769   0.769   0.769   0.769   0.769   0.769
   144.44    0.769   0.769   0.769   0.769   0.769   0.769   0.769   0.769   0.769   0.769
   128.89    0.769   0.769   0.769   0.769   0.769   0.769   0.769   0.769   0.769   0.769
   113.33    0.769   0.769   0.769   0.769   0.769   0.769   0.769   0.769   0.769   0.769
    97.78    0.769   0.769   0.769   0.769   0.769   0.769   0.769   0.769   0.769   0.769
    82.22    0.769   0.769   0.769   0.769   0.769   0.769   0.769   0.769   0.769   0.769
    66.67    0.769   0.769   0.769   0.769   0.769   0.769   0.769   0.769   0.769   0.769
    51.11    0.769   0.769   0.769   0.769   0.769   0.769   0.769   0.769   0.769   0.769
    35.56    0.769   0.769   0.769   0.769   0.769   0.769   0.769   0.769   0.769   0.769
    20.00    0.769   0.769   0.769   0.769   0.769   0.769   0.769   0.769   0.769   0.769

   Mean standard deviation across all grid points:
      u component:    1.635 m/s
      v component:    1.226 m/s
      w component:    0.769 m/s


U-component (X) statistics from the interpolated hub point:

   Mean =   9.9940 m/s
   TI   =  13.4370 %


Normalizing Parameters for Binary Data (approximate statistics):

   UBar  =  10.0000 m/s
   TI(u) =  15.5597 %
   TI(v) =  12.2606 %
   TI(w) =   7.6928 %

   Height Offset =   0.0000 m
   Grid Base     =  20.0000 m

Creating a PERIODIC output file.


Processing complete.  22.54 CPU seconds used.
