
This summary file was generated by TurbSim (v1.06.00, 21-Sep-2012) on 02-Apr-2015 at 09:34:45.


Runtime Options:

   4625451  Random seed #1
    RANLUX  Type of random number generator
         F  Output binary HH turbulence parameters?
         F  Output formatted turbulence parameters?
         F  Output AeroDyn HH files?
         T  Output AeroDyn FF files?
         T  Output BLADED FF files?
         F  Output tower data?
         F  Output formatted FF files?
         F  Output coherent turbulence time step file?
         F  Clockwise rotation when looking downwind?
 1 -   HUB  IEC turbulence models scaled to exact specified standard deviation


Turbine/Model Specifications:

         5  Vertical grid-point matrix dimension
         5  Horizontal grid-point matrix dimension
     0.050  Time step [seconds]
   600.000  Analysis time [seconds]
   600.000  Usable output time [seconds]
    90.000  Hub height [m]
   140.000  Grid height [m]
   140.000  Grid width [m]
     0.000  Vertical flow angle [degrees]
     0.000  Horizontal flow angle [degrees]


Meteorological Boundary Conditions:

    IECKAI  IEC Kaimal spectral model
         1  IEC standard: IEC 61400-1 Ed. 3: 2005
         A  IEC turbulence characteristic
       NTM  IEC Normal Turbulence Model
       N/A  IEC Extreme Turbulence Model (ETM) "c" parameter [m/s]
       IEC  Wind profile type
    90.000  Reference height [m]
    10.000  Reference wind speed [m/s]
       N/A  Jet height [m]
     0.200  Power law exponent
     0.030  Surface roughness length [m]


You have requested that the following file(s) be generated:

   5pts_Sc.bts (AeroDyn/TurbSim full-field wind file)
   5pts_Sc.wnd (AeroDyn/BLADED full-field wnd file)


Turbulence Simulation Scaling Parameter Summary:

   Turbulence model used                            =  IEC Kaimal
   Turbulence characteristic                        =  A
   IEC turbulence type                              =  Normal Turbulence Model
   IEC standard                                     =  IEC 61400-1 Ed. 3: 2005
   Mean wind speed at hub height                    =   10.000 m/s
   Expected value of turbulence intensity at 15 m/s =   16.000%
   Characteristic value of standard deviation       =    2.096 m/s
   Turbulence scale                                 =   42.000 m
   u-component integral scale                       =  340.200 m
   Coherency scale                                  =  340.200 m
   Characteristic value of hub turbulence intensity =   20.960%
   Gradient Richardson number                       =    0.000

   Wind profile type                                =  Power law on rotor disk, logarithmic elsewhere
   Power law exponent                               =    0.200
   Mean shear across rotor disk                     =    0.027 (m/s)/m
   Assumed rotor diameter                           =  140.000 m
   Surface roughness length                         =    0.030 m

   Number of time steps in the FFT                  =    12000
   Number of time steps output                      =    12000


Mean Flow Angles:

   Vertical   =   0.0 degrees
   Horizontal =   0.0 degrees

Mean Wind Speed Profile:

   Height    Wind Speed   Horizontal Angle  U-comp (X)   V-comp (Y)   W-comp (Z)
     (m)        (m/s)         (degrees)       (m/s)        (m/s)        (m/s)   
   ------    ----------   ----------------  ----------   ----------   ----------
    160.0       11.22            0.00         11.22         0.00         0.00
    125.0       10.68            0.00         10.68         0.00         0.00
     90.0       10.00            0.00         10.00         0.00         0.00
     55.0        9.06            0.00          9.06         0.00         0.00
     20.0        7.40            0.00          7.40         0.00         0.00


Harvested Random Seeds after Generation of the Random Numbers:

      4181250 K1
            0 K2


Scaling statistics from the hub grid point:

  Component  Target Sigma (m/s)  Simulated Sigma (m/s)  Scaling Factor
  ---------  ------------------  ---------------------  --------------
     u'             2.096                1.677                1.250
     v'             1.677                1.635                1.026
     w'             1.048                1.026                1.022


Hub-Height Simulated Turbulence Statistical Summary:

   Type of Wind        Min (m/s)   Mean (m/s)    Max (m/s)  Sigma (m/s)       TI (%)
   ----------------    ---------   ----------    ---------  -----------       ------
   Longitudinal (u)         3.41        10.00        17.14        2.096       20.960
   Lateral (v)             -5.19        -0.00         5.92        1.677       16.768
   Vertical (w)            -3.34        -0.00         3.63        1.048       10.480
   U component              3.41        10.00        17.14        2.096       20.960
   V component             -5.19        -0.00         5.92        1.677       16.768
   W component             -3.34        -0.00         3.63        1.048       10.480
   Horizontal (U&V)         3.44        10.15        17.26        2.067       20.375
   Total                    3.50        10.20        17.31        2.058       20.172

                       Min Reynolds     Mean Reynolds    Max Reynolds    Correlation
   Product             Stress (m/s)^2   Stress (m/s)^2   Stress (m/s)^2  Coefficient
   ----------------    --------------   --------------   --------------  -----------
   u'w'                    -16.643            -0.145            11.362        -0.066
   u'v'                    -20.849             0.227            19.006         0.065
   v'w'                    -14.442            -0.076            11.180        -0.044


   Friction Velocity (Ustar)  =      0.381 m/s
   Maximum Instantaneous TKE  =     28.687 (m/s)^2
   Maximum Instantaneous CTKE =     11.801 (m/s)^2


Grid Point Variance Summary:

   Y-coord  -70.00  -35.00    0.00   35.00   70.00

   Height   Standard deviation at grid points for the u component:
   160.00    2.356   2.502   2.493   2.635   2.885
   125.00    2.209   2.294   2.418   2.707   2.423
    90.00    2.308   2.379   2.096   2.218   2.732
    55.00    2.065   2.371   2.575   2.237   2.514
    20.00    2.473   2.471   2.385   2.474   2.537

   Height   Standard deviation at grid points for the v component:
   160.00    1.677   1.677   1.677   1.677   1.677
   125.00    1.677   1.677   1.677   1.677   1.677
    90.00    1.677   1.677   1.677   1.677   1.677
    55.00    1.677   1.677   1.677   1.677   1.677
    20.00    1.677   1.677   1.677   1.677   1.677

   Height   Standard deviation at grid points for the w component:
   160.00    1.048   1.048   1.048   1.048   1.048
   125.00    1.048   1.048   1.048   1.048   1.048
    90.00    1.048   1.048   1.048   1.048   1.048
    55.00    1.048   1.048   1.048   1.048   1.048
    20.00    1.048   1.048   1.048   1.048   1.048

   Mean standard deviation across all grid points:
      u component:    2.430 m/s
      v component:    1.677 m/s
      w component:    1.048 m/s


U-component (X) statistics from the hub grid point:

   Mean =  10.0000 m/s
   TI   =  20.9600 %


Normalizing Parameters for Binary Data (approximate statistics):

   UBar  =  10.0000 m/s
   TI(u) =  20.9600 %
   TI(v) =  16.7680 %
   TI(w) =  10.4800 %

   Height Offset =   0.0000 m
   Grid Base     =  20.0000 m

Nyquist frequency of turbulent wind field =        10.000 Hz


Processing complete.  0.69396 CPU seconds used.
