
This summary file was generated by TurbSim (v1.06.00, 21-Sep-2012) on 24-Mar-2015 at 17:01:27.


Runtime Options:

   4625451  Random seed #1
    RANLUX  Type of random number generator
         F  Output binary HH turbulence parameters?
         F  Output formatted turbulence parameters?
         F  Output AeroDyn HH files?
         T  Output AeroDyn FF files?
         T  Output BLADED FF files?
         F  Output tower data?
         F  Output formatted FF files?
         F  Output coherent turbulence time step file?
         F  Clockwise rotation when looking downwind?
 1 -   HUB  IEC turbulence models scaled to exact specified standard deviation


Turbine/Model Specifications:

        10  Vertical grid-point matrix dimension
        10  Horizontal grid-point matrix dimension
     0.050  Time step [seconds]
   600.000  Analysis time [seconds]
   600.000  Usable output time [seconds]
    90.000  Hub height [m]
   140.000  Grid height [m]
   140.000  Grid width [m]
     0.000  Vertical flow angle [degrees]
     0.000  Horizontal flow angle [degrees]


Meteorological Boundary Conditions:

    IECKAI  IEC Kaimal spectral model
         1  IEC standard: IEC 61400-1 Ed. 3: 2005
         A  IEC turbulence characteristic
       NTM  IEC Normal Turbulence Model
       N/A  IEC Extreme Turbulence Model (ETM) "c" parameter [m/s]
       IEC  Wind profile type
    90.000  Reference height [m]
    10.000  Reference wind speed [m/s]
       N/A  Jet height [m]
     0.200  Power law exponent
     0.030  Surface roughness length [m]


You have requested that the following file(s) be generated:

   IEC_scale_10pts.bts (AeroDyn/TurbSim full-field wind file)
   IEC_scale_10pts.wnd (AeroDyn/BLADED full-field wnd file)


Turbulence Simulation Scaling Parameter Summary:

   Turbulence model used                            =  IEC Kaimal
   Turbulence characteristic                        =  A
   IEC turbulence type                              =  Normal Turbulence Model
   IEC standard                                     =  IEC 61400-1 Ed. 3: 2005
   Mean wind speed at hub height                    =   10.000 m/s
   Expected value of turbulence intensity at 15 m/s =   16.000%
   Characteristic value of standard deviation       =    2.096 m/s
   Turbulence scale                                 =   42.000 m
   u-component integral scale                       =  340.200 m
   Coherency scale                                  =  340.200 m
   Characteristic value of hub turbulence intensity =   20.960%
   Gradient Richardson number                       =    0.000

   Wind profile type                                =  Power law on rotor disk, logarithmic elsewhere
   Power law exponent                               =    0.200
   Mean shear across rotor disk                     =    0.027 (m/s)/m
   Assumed rotor diameter                           =  140.000 m
   Surface roughness length                         =    0.030 m

   Number of time steps in the FFT                  =    12000
   Number of time steps output                      =    12000


Mean Flow Angles:

   Vertical   =   0.0 degrees
   Horizontal =   0.0 degrees

Mean Wind Speed Profile:

   Height    Wind Speed   Horizontal Angle  U-comp (X)   V-comp (Y)   W-comp (Z)
     (m)        (m/s)         (degrees)       (m/s)        (m/s)        (m/s)   
   ------    ----------   ----------------  ----------   ----------   ----------
    160.0       11.22            0.00         11.22         0.00         0.00
    144.4       10.99            0.00         10.99         0.00         0.00
    128.9       10.74            0.00         10.74         0.00         0.00
    113.3       10.47            0.00         10.47         0.00         0.00
     97.8       10.17            0.00         10.17         0.00         0.00
     90.0       10.00            0.00         10.00         0.00         0.00
     82.2        9.82            0.00          9.82         0.00         0.00
     66.7        9.42            0.00          9.42         0.00         0.00
     51.1        8.93            0.00          8.93         0.00         0.00
     35.6        8.30            0.00          8.30         0.00         0.00
     20.0        7.40            0.00          7.40         0.00         0.00


Harvested Random Seeds after Generation of the Random Numbers:

     16892250 K1
            0 K2


Scaling statistics from the hub grid point:

  Component  Target Sigma (m/s)  Simulated Sigma (m/s)  Scaling Factor
  ---------  ------------------  ---------------------  --------------
     u'             2.096                2.115                0.991
     v'             1.677                1.635                1.026
     w'             1.048                1.026                1.022


Hub-Height Simulated Turbulence Statistical Summary:

   Type of Wind        Min (m/s)   Mean (m/s)    Max (m/s)  Sigma (m/s)       TI (%)
   ----------------    ---------   ----------    ---------  -----------       ------
   Longitudinal (u)         4.10        10.00        16.16        2.096       20.960
   Lateral (v)             -5.31         0.00         6.82        1.677       16.768
   Vertical (w)            -4.69         0.00         3.61        1.048       10.480
   U component              4.10        10.00        16.16        2.096       20.960
   V component             -5.31         0.00         6.82        1.677       16.768
   W component             -4.69         0.00         3.61        1.048       10.480
   Horizontal (U&V)         4.12        10.15        16.18        2.055       20.255
   Total                    4.12        10.21        16.18        2.039       19.981

                       Min Reynolds     Mean Reynolds    Max Reynolds    Correlation
   Product             Stress (m/s)^2   Stress (m/s)^2   Stress (m/s)^2  Coefficient
   ----------------    --------------   --------------   --------------  -----------
   u'w'                    -13.282             0.120            14.857         0.054
   u'v'                    -22.921             0.090            13.778         0.026
   v'w'                    -12.301             0.084            14.731         0.048


   Friction Velocity (Ustar)  =      0.346 m/s
   Maximum Instantaneous TKE  =     28.654 (m/s)^2
   Maximum Instantaneous CTKE =     11.465 (m/s)^2


Grid Point Variance Summary:

   Y-coord  -70.00  -54.44  -38.89  -23.33   -7.78    7.78   23.33   38.89   54.44   70.00

   Height   Standard deviation at grid points for the u component:
   160.00    1.620   1.853   1.981   1.915   2.007   2.028   1.947   1.932   2.067   1.829
   144.44    1.761   1.829   1.953   1.854   1.817   1.808   1.884   1.915   2.082   2.100
   128.89    2.152   2.271   2.376   2.231   2.201   2.050   1.837   2.106   2.230   2.288
   113.33    2.195   2.342   2.414   2.278   2.026   2.139   1.902   1.880   2.157   2.385
    97.78    2.270   2.265   2.063   2.223   2.001   2.111   1.895   2.026   2.005   2.219
    82.22    2.140   2.215   2.299   2.105   2.026   1.923   2.075   2.266   2.208   2.085
    66.67    1.960   2.062   1.891   2.089   2.200   2.343   1.992   2.090   2.229   2.134
    51.11    2.047   2.061   1.832   2.028   2.253   2.092   1.978   2.190   2.162   2.061
    35.56    2.014   1.983   1.691   1.907   2.081   1.998   1.956   2.012   2.082   1.817
    20.00    1.960   1.939   1.859   1.893   2.034   1.707   1.852   2.006   1.875   1.829

   Height   Standard deviation at grid points for the v component:
   160.00    1.677   1.677   1.677   1.677   1.677   1.677   1.677   1.677   1.677   1.677
   144.44    1.677   1.677   1.677   1.677   1.677   1.677   1.677   1.677   1.677   1.677
   128.89    1.677   1.677   1.677   1.677   1.677   1.677   1.677   1.677   1.677   1.677
   113.33    1.677   1.677   1.677   1.677   1.677   1.677   1.677   1.677   1.677   1.677
    97.78    1.677   1.677   1.677   1.677   1.677   1.677   1.677   1.677   1.677   1.677
    82.22    1.677   1.677   1.677   1.677   1.677   1.677   1.677   1.677   1.677   1.677
    66.67    1.677   1.677   1.677   1.677   1.677   1.677   1.677   1.677   1.677   1.677
    51.11    1.677   1.677   1.677   1.677   1.677   1.677   1.677   1.677   1.677   1.677
    35.56    1.677   1.677   1.677   1.677   1.677   1.677   1.677   1.677   1.677   1.677
    20.00    1.677   1.677   1.677   1.677   1.677   1.677   1.677   1.677   1.677   1.677

   Height   Standard deviation at grid points for the w component:
   160.00    1.048   1.048   1.048   1.048   1.048   1.048   1.048   1.048   1.048   1.048
   144.44    1.048   1.048   1.048   1.048   1.048   1.048   1.048   1.048   1.048   1.048
   128.89    1.048   1.048   1.048   1.048   1.048   1.048   1.048   1.048   1.048   1.048
   113.33    1.048   1.048   1.048   1.048   1.048   1.048   1.048   1.048   1.048   1.048
    97.78    1.048   1.048   1.048   1.048   1.048   1.048   1.048   1.048   1.048   1.048
    82.22    1.048   1.048   1.048   1.048   1.048   1.048   1.048   1.048   1.048   1.048
    66.67    1.048   1.048   1.048   1.048   1.048   1.048   1.048   1.048   1.048   1.048
    51.11    1.048   1.048   1.048   1.048   1.048   1.048   1.048   1.048   1.048   1.048
    35.56    1.048   1.048   1.048   1.048   1.048   1.048   1.048   1.048   1.048   1.048
    20.00    1.048   1.048   1.048   1.048   1.048   1.048   1.048   1.048   1.048   1.048

   Mean standard deviation across all grid points:
      u component:    2.043 m/s
      v component:    1.677 m/s
      w component:    1.048 m/s


U-component (X) statistics from the interpolated hub point:

   Mean =   9.9940 m/s
   TI   =  17.5281 %


Normalizing Parameters for Binary Data (approximate statistics):

   UBar  =  10.0000 m/s
   TI(u) =  20.9600 %
   TI(v) =  16.7680 %
   TI(w) =  10.4800 %

   Height Offset =   0.0000 m
   Grid Base     =  20.0000 m

Nyquist frequency of turbulent wind field =        10.000 Hz


Processing complete.  22.648 CPU seconds used.
