
This summary file was generated by TurbSim (v2.00.01a-bjj, 14-Oct-2014) on 25-Oct-2015 at 12:27:55.


Runtime Options:

 203364859  Random seed #1
 938560047  Random seed #2
         F  Output binary HH turbulence parameters?
         F  Output formatted turbulence parameters?
         F  Output AeroDyn HH files?
         T  Output AeroDyn FF files?
         F  Output BLADED FF files?
         F  Output tower data?
         F  Output formatted FF files?
         F  Output coherent turbulence time step file?
         T  Clockwise rotation when looking downwind?
 0 -  NONE  IEC turbulence models scaled to exact specified standard deviation


Turbine/Model Specifications:

        15  Vertical grid-point matrix dimension
        15  Horizontal grid-point matrix dimension
     0.050  Time step [seconds]
   630.000  Analysis time [seconds]
   630.000  Usable output time [seconds]
    60.000  Hub height [m]
    56.000  Grid height [m]
    56.000  Grid width [m]
     0.000  Vertical flow angle [degrees]
     0.000  Horizontal flow angle [degrees]


Meteorological Boundary Conditions:

    USRINP  Uniform user-input spectral model
       N/A  IEC standard
       N/A  IEC turbulence characteristic
       N/A  IEC turbulence type
       N/A  IEC Extreme Turbulence Model (ETM) "c" parameter [m/s]
       PL   Wind profile type
   100.000  Reference height [m]
    22.000  Reference wind speed [m/s]
       N/A  Jet height [m]
     0.200  Power law exponent
     0.030  Surface roughness length [m]


Non-IEC Meteorological Boundary Conditions:

    45.000  Site latitude [degrees]
     0.050  Gradient Richardson number
     1.042  Friction or shear velocity [m/s]
       N/A  Mixing layer depth [m]
       N/A  Mean hub u'w' Reynolds stress
       N/A  Mean hub u'v' Reynolds stress
       N/A  Mean hub v'w' Reynolds stress


Spatial Coherence Models:

       IEC  u-component coherence model
      NONE  v-component coherence model
      NONE  w-component coherence model
(   12.000, 0.353E-03)  u-component coherence parameters
                   N/A  v-component coherence parameters
                   N/A  w-component coherence parameters
       N/A  Coherence exponent


You have requested that the following file(s) be generated:

   /scratch/jrinker/IOFiles/WP0.75A08V00/WP0.75A08V00_b1333.bts (AeroDyn/TurbSim full-field wind file)


Turbulence Simulation Scaling Parameter Summary:

   Turbulence model used                            =  Uniform user-input
   Gradient Richardson number                       =    0.050
   Monin-Obukhov (M-O) z/L parameter                =    0.067
   Monin-Obukhov (M-O) length scale                 =  900.000 m
   Mean wind speed at hub height                    =   19.863 m/s

   Wind profile type                                =  Power law
   Power law exponent                               =    0.200
   Mean shear across rotor disk                     =    0.070 (m/s)/m
   Assumed rotor diameter                           =   56.000 m
   Surface roughness length                         =    0.030 m

   Nyquist frequency of turbulent wind field        =   10.000 Hz

   Number of time steps in the FFT                  =    12600
   Number of time steps output                      =    12600
   Number of points simulated                       =      225


Mean Flow Angles:

   Vertical   =   0.0 degrees
   Horizontal =   0.0 degrees

Mean Wind Speed Profile:

   Height    Wind Speed   Horizontal Angle  Vertical Angle  U-comp (X)   V-comp (Y)   W-comp (Z)
     (m)        (m/s)         (degrees)       (degrees)       (m/s)        (m/s)        (m/s)   
   ------    ----------   ----------------  --------------  ----------   ----------   ----------
     88.0       21.44            0.00            0.00         21.44         0.00         0.00
     84.0       21.25            0.00            0.00         21.25         0.00         0.00
     80.0       21.04            0.00            0.00         21.04         0.00         0.00
     76.0       20.83            0.00            0.00         20.83         0.00         0.00
     72.0       20.60            0.00            0.00         20.60         0.00         0.00
     68.0       20.37            0.00            0.00         20.37         0.00         0.00
     64.0       20.12            0.00            0.00         20.12         0.00         0.00
     60.0       19.86            0.00            0.00         19.86         0.00         0.00
     56.0       19.59            0.00            0.00         19.59         0.00         0.00
     52.0       19.30            0.00            0.00         19.30         0.00         0.00
     48.0       19.00            0.00            0.00         19.00         0.00         0.00
     44.0       18.67            0.00            0.00         18.67         0.00         0.00
     40.0       18.32            0.00            0.00         18.32         0.00         0.00
     36.0       17.93            0.00            0.00         17.93         0.00         0.00
     32.0       17.52            0.00            0.00         17.52         0.00         0.00


Harvested Random Seeds after Generation of the Random Numbers:

    217717046 Harvested seed # 1
    931809833 Harvested seed # 2
    214768050 Harvested seed # 3
    931023403 Harvested seed # 4
    206117275 Harvested seed # 5
    939477541 Harvested seed # 6
    204216804 Harvested seed # 7
    930564824 Harvested seed # 8
    301642038 Harvested seed # 9
  -1886736855 Harvested seed #10
    583903410 Harvested seed #11
   -612464853 Harvested seed #12


Hub-Height Simulated Turbulence Statistical Summary:

   Type of Wind        Min (m/s)   Mean (m/s)    Max (m/s)  Sigma (m/s)       TI (%)
   ----------------    ---------   ----------    ---------  -----------       ------
   Longitudinal (u)         5.09        19.86        36.40        4.126       20.773
   Lateral (v)            -11.04        -0.00        14.75        3.520       17.721
   Vertical (w)           -10.10         0.00         8.67        2.200       11.074
   U component              5.09        19.86        36.40        4.126       20.773
   V component            -11.04        -0.00        14.75        3.520       17.721
   W component            -10.10         0.00         8.67        2.200       11.074
   Horizontal (U&V)         5.81        20.18        37.00        4.107       20.354
   Total                    5.83        20.30        37.01        4.099       20.196

                       Min Reynolds     Mean Reynolds    Max Reynolds    Correlation
   Product             Stress (m/s)^2   Stress (m/s)^2   Stress (m/s)^2  Coefficient
   ----------------    --------------   --------------   --------------  -----------
   u'w'                    -60.410             0.958            56.163         0.106
   u'v'                   -154.112            -3.719           101.379        -0.256
   v'w'                    -64.371            -1.116            57.124        -0.144


   Friction Velocity (Ustar)  =      0.979 m/s
   Maximum Instantaneous TKE  =    170.135 (m/s)^2
   Maximum Instantaneous CTKE =     77.264 (m/s)^2


Grid Point Variance Summary:

   Y-coord  -28.00  -24.00  -20.00  -16.00  -12.00   -8.00   -4.00    0.00    4.00    8.00   12.00   16.00   20.00   24.00   28.00

   Height   Standard deviation at grid points for the u component:
    88.00    3.752   3.611   3.597   3.364   3.389   3.753   3.983   4.077   4.185   4.220   4.303   4.487   4.577   4.333   4.472
    84.00    3.699   3.667   3.607   3.582   3.700   3.894   4.102   4.303   4.177   4.618   4.361   4.399   4.595   4.614   4.459
    80.00    3.807   3.958   3.603   3.568   3.904   3.965   4.243   4.391   4.252   4.248   4.532   4.474   4.328   4.196   4.300
    76.00    3.933   3.882   3.880   3.723   4.052   4.232   4.299   4.431   4.290   4.128   4.274   4.460   4.128   4.297   4.238
    72.00    3.992   3.816   4.006   3.840   3.948   4.398   4.332   4.183   4.074   4.202   4.126   4.011   4.009   4.226   4.322
    68.00    4.094   4.149   3.971   3.930   4.214   4.263   4.299   4.197   4.095   4.054   3.986   4.158   3.964   4.021   4.081
    64.00    4.223   4.392   4.018   4.037   4.260   4.470   4.248   4.015   3.940   4.131   4.106   4.219   4.039   3.905   3.872
    60.00    4.140   4.301   4.066   4.075   4.180   4.344   4.012   4.126   4.104   3.943   4.018   3.897   3.946   4.148   3.908
    56.00    4.441   4.419   4.337   4.088   4.354   4.181   3.971   4.001   3.957   4.107   3.962   4.085   3.839   4.069   4.018
    52.00    4.322   4.421   4.411   4.307   4.343   4.147   4.315   4.080   4.045   4.117   4.290   4.314   3.978   3.990   4.043
    48.00    4.291   4.447   4.531   4.539   4.584   4.402   4.346   4.435   4.046   3.985   4.332   4.370   4.226   4.070   4.305
    44.00    4.295   4.460   4.379   4.386   4.520   4.539   4.560   4.209   4.383   4.136   4.519   4.605   4.401   4.347   4.744
    40.00    4.241   4.441   4.520   4.579   4.562   4.801   4.540   4.319   4.200   4.358   4.353   4.699   4.558   4.611   4.594
    36.00    4.434   4.422   4.785   4.517   4.627   4.701   4.449   4.612   4.528   4.342   4.471   4.643   4.568   4.684   4.696
    32.00    4.403   4.468   4.349   4.551   4.693   4.879   4.799   4.532   4.319   4.379   4.515   4.423   4.695   4.714   4.625

   Height   Standard deviation at grid points for the v component:
    88.00    3.520   3.520   3.520   3.520   3.520   3.520   3.520   3.520   3.520   3.520   3.520   3.520   3.520   3.520   3.520
    84.00    3.520   3.520   3.520   3.520   3.520   3.520   3.520   3.520   3.520   3.520   3.520   3.520   3.520   3.520   3.520
    80.00    3.520   3.520   3.520   3.520   3.520   3.520   3.520   3.520   3.520   3.520   3.520   3.520   3.520   3.520   3.520
    76.00    3.520   3.520   3.520   3.520   3.520   3.520   3.520   3.520   3.520   3.520   3.520   3.520   3.520   3.520   3.520
    72.00    3.520   3.520   3.520   3.520   3.520   3.520   3.520   3.520   3.520   3.520   3.520   3.520   3.520   3.520   3.520
    68.00    3.520   3.520   3.520   3.520   3.520   3.520   3.520   3.520   3.520   3.520   3.520   3.520   3.520   3.520   3.520
    64.00    3.520   3.520   3.520   3.520   3.520   3.520   3.520   3.520   3.520   3.520   3.520   3.520   3.520   3.520   3.520
    60.00    3.520   3.520   3.520   3.520   3.520   3.520   3.520   3.520   3.520   3.520   3.520   3.520   3.520   3.520   3.520
    56.00    3.520   3.520   3.520   3.520   3.520   3.520   3.520   3.520   3.520   3.520   3.520   3.520   3.520   3.520   3.520
    52.00    3.520   3.520   3.520   3.520   3.520   3.520   3.520   3.520   3.520   3.520   3.520   3.520   3.520   3.520   3.520
    48.00    3.520   3.520   3.520   3.520   3.520   3.520   3.520   3.520   3.520   3.520   3.520   3.520   3.520   3.520   3.520
    44.00    3.520   3.520   3.520   3.520   3.520   3.520   3.520   3.520   3.520   3.520   3.520   3.520   3.520   3.520   3.520
    40.00    3.520   3.520   3.520   3.520   3.520   3.520   3.520   3.520   3.520   3.520   3.520   3.520   3.520   3.520   3.520
    36.00    3.520   3.520   3.520   3.520   3.520   3.520   3.520   3.520   3.520   3.520   3.520   3.520   3.520   3.520   3.520
    32.00    3.520   3.520   3.520   3.520   3.520   3.520   3.520   3.520   3.520   3.520   3.520   3.520   3.520   3.520   3.520

   Height   Standard deviation at grid points for the w component:
    88.00    2.200   2.200   2.200   2.200   2.200   2.200   2.200   2.200   2.200   2.200   2.200   2.200   2.200   2.200   2.200
    84.00    2.200   2.200   2.200   2.200   2.200   2.200   2.200   2.200   2.200   2.200   2.200   2.200   2.200   2.200   2.200
    80.00    2.200   2.200   2.200   2.200   2.200   2.200   2.200   2.200   2.200   2.200   2.200   2.200   2.200   2.200   2.200
    76.00    2.200   2.200   2.200   2.200   2.200   2.200   2.200   2.200   2.200   2.200   2.200   2.200   2.200   2.200   2.200
    72.00    2.200   2.200   2.200   2.200   2.200   2.200   2.200   2.200   2.200   2.200   2.200   2.200   2.200   2.200   2.200
    68.00    2.200   2.200   2.200   2.200   2.200   2.200   2.200   2.200   2.200   2.200   2.200   2.200   2.200   2.200   2.200
    64.00    2.200   2.200   2.200   2.200   2.200   2.200   2.200   2.200   2.200   2.200   2.200   2.200   2.200   2.200   2.200
    60.00    2.200   2.200   2.200   2.200   2.200   2.200   2.200   2.200   2.200   2.200   2.200   2.200   2.200   2.200   2.200
    56.00    2.200   2.200   2.200   2.200   2.200   2.200   2.200   2.200   2.200   2.200   2.200   2.200   2.200   2.200   2.200
    52.00    2.200   2.200   2.200   2.200   2.200   2.200   2.200   2.200   2.200   2.200   2.200   2.200   2.200   2.200   2.200
    48.00    2.200   2.200   2.200   2.200   2.200   2.200   2.200   2.200   2.200   2.200   2.200   2.200   2.200   2.200   2.200
    44.00    2.200   2.200   2.200   2.200   2.200   2.200   2.200   2.200   2.200   2.200   2.200   2.200   2.200   2.200   2.200
    40.00    2.200   2.200   2.200   2.200   2.200   2.200   2.200   2.200   2.200   2.200   2.200   2.200   2.200   2.200   2.200
    36.00    2.200   2.200   2.200   2.200   2.200   2.200   2.200   2.200   2.200   2.200   2.200   2.200   2.200   2.200   2.200
    32.00    2.200   2.200   2.200   2.200   2.200   2.200   2.200   2.200   2.200   2.200   2.200   2.200   2.200   2.200   2.200

   Mean standard deviation across all grid points:
      u component:    4.233 m/s
      v component:    3.520 m/s
      w component:    2.200 m/s


U-component (X) statistics from the interpolated hub point:

   Mean =  19.8634 m/s
   TI   =  20.7734 %


Processing complete.  27.326 CPU seconds used.
