
This summary file was generated by TurbSim (v1.06.00, 21-Sep-2012) on 24-Mar-2015 at 16:46:23.


Runtime Options:

   4625451  Random seed #1
    RANLUX  Type of random number generator
         F  Output binary HH turbulence parameters?
         F  Output formatted turbulence parameters?
         F  Output AeroDyn HH files?
         T  Output AeroDyn FF files?
         T  Output BLADED FF files?
         F  Output tower data?
         F  Output formatted FF files?
         F  Output coherent turbulence time step file?
         F  Clockwise rotation when looking downwind?
 0 -  NONE  IEC turbulence models scaled to exact specified standard deviation


Turbine/Model Specifications:

        10  Vertical grid-point matrix dimension
        10  Horizontal grid-point matrix dimension
     0.050  Time step [seconds]
   600.000  Analysis time [seconds]
   600.000  Usable output time [seconds]
    90.000  Hub height [m]
   140.000  Grid height [m]
   140.000  Grid width [m]
     0.000  Vertical flow angle [degrees]
     0.000  Horizontal flow angle [degrees]


Meteorological Boundary Conditions:

    IECKAI  IEC Kaimal spectral model
         1  IEC standard: IEC 61400-1 Ed. 3: 2005
         A  IEC turbulence characteristic
       NTM  IEC Normal Turbulence Model
       N/A  IEC Extreme Turbulence Model (ETM) "c" parameter [m/s]
       IEC  Wind profile type
    90.000  Reference height [m]
    10.000  Reference wind speed [m/s]
       N/A  Jet height [m]
     0.200  Power law exponent
     0.030  Surface roughness length [m]


You have requested that the following file(s) be generated:

   IEC_noscale_10pts.bts (AeroDyn/TurbSim full-field wind file)
   IEC_noscale_10pts.wnd (AeroDyn/BLADED full-field wnd file)


Turbulence Simulation Scaling Parameter Summary:

   Turbulence model used                            =  IEC Kaimal
   Turbulence characteristic                        =  A
   IEC turbulence type                              =  Normal Turbulence Model
   IEC standard                                     =  IEC 61400-1 Ed. 3: 2005
   Mean wind speed at hub height                    =   10.000 m/s
   Expected value of turbulence intensity at 15 m/s =   16.000%
   Characteristic value of standard deviation       =    2.096 m/s
   Turbulence scale                                 =   42.000 m
   u-component integral scale                       =  340.200 m
   Coherency scale                                  =  340.200 m
   Characteristic value of hub turbulence intensity =   20.960%
   Gradient Richardson number                       =    0.000

   Wind profile type                                =  Power law on rotor disk, logarithmic elsewhere
   Power law exponent                               =    0.200
   Mean shear across rotor disk                     =    0.027 (m/s)/m
   Assumed rotor diameter                           =  140.000 m
   Surface roughness length                         =    0.030 m

   Number of time steps in the FFT                  =    12288
   Number of time steps output                      =    12280


Mean Flow Angles:

   Vertical   =   0.0 degrees
   Horizontal =   0.0 degrees

Mean Wind Speed Profile:

   Height    Wind Speed   Horizontal Angle  U-comp (X)   V-comp (Y)   W-comp (Z)
     (m)        (m/s)         (degrees)       (m/s)        (m/s)        (m/s)   
   ------    ----------   ----------------  ----------   ----------   ----------
    160.0       11.22            0.00         11.22         0.00         0.00
    144.4       10.99            0.00         10.99         0.00         0.00
    128.9       10.74            0.00         10.74         0.00         0.00
    113.3       10.47            0.00         10.47         0.00         0.00
     97.8       10.17            0.00         10.17         0.00         0.00
     90.0       10.00            0.00         10.00         0.00         0.00
     82.2        9.82            0.00          9.82         0.00         0.00
     66.7        9.42            0.00          9.42         0.00         0.00
     51.1        8.93            0.00          8.93         0.00         0.00
     35.6        8.30            0.00          8.30         0.00         0.00
     20.0        7.40            0.00          7.40         0.00         0.00


Harvested Random Seeds after Generation of the Random Numbers:

     17297664 K1
            0 K2


Hub-Height Simulated Turbulence Statistical Summary:

   Type of Wind        Min (m/s)   Mean (m/s)    Max (m/s)  Sigma (m/s)       TI (%)
   ----------------    ---------   ----------    ---------  -----------       ------
   Longitudinal (u)         2.42        10.00        16.16        2.146       21.455
   Lateral (v)             -5.39         0.00         5.76        1.635       16.355
   Vertical (w)            -3.10         0.00         3.54        1.026       10.258
   U component              2.42        10.00        16.16        2.146       21.455
   V component             -5.39         0.00         5.76        1.635       16.355
   W component             -3.10         0.00         3.54        1.026       10.258
   Horizontal (U&V)         2.68        10.14        16.25        2.112       20.827
   Total                    2.68        10.19        16.35        2.100       20.605

                       Min Reynolds     Mean Reynolds    Max Reynolds    Correlation
   Product             Stress (m/s)^2   Stress (m/s)^2   Stress (m/s)^2  Coefficient
   ----------------    --------------   --------------   --------------  -----------
   u'w'                    -12.868             0.045            13.953         0.020
   u'v'                    -17.558             0.392            28.532         0.112
   v'w'                    -10.040             0.038            11.093         0.023


   Friction Velocity (Ustar)  =      0.212 m/s
   Maximum Instantaneous TKE  =     32.261 (m/s)^2
   Maximum Instantaneous CTKE =     14.901 (m/s)^2


Grid Point Variance Summary:

   Y-coord  -70.00  -54.44  -38.89  -23.33   -7.78    7.78   23.33   38.89   54.44   70.00

   Height   Standard deviation at grid points for the u component:
   160.00    2.170   1.990   2.372   2.389   2.246   2.154   2.000   2.022   2.128   2.228
   144.44    2.344   2.399   2.301   2.419   2.353   2.121   1.944   2.009   2.123   2.135
   128.89    2.315   2.480   2.386   2.437   2.314   2.024   2.047   2.156   2.198   1.961
   113.33    2.461   2.325   2.401   2.557   2.332   2.409   2.119   2.160   2.244   2.309
    97.78    2.310   2.527   2.535   2.430   2.332   2.354   2.278   2.237   2.213   2.464
    82.22    2.264   2.463   2.342   2.407   2.414   2.150   2.300   2.102   2.125   2.210
    66.67    2.422   2.566   2.241   2.174   2.021   2.156   2.281   2.193   2.266   2.399
    51.11    2.208   2.437   2.326   2.263   2.197   2.111   2.115   2.189   2.268   2.241
    35.56    2.112   2.254   2.354   2.370   2.298   2.285   2.233   2.072   2.167   2.236
    20.00    1.981   2.195   2.296   2.317   2.210   2.111   2.345   2.232   2.421   2.339

   Height   Standard deviation at grid points for the v component:
   160.00    1.635   1.635   1.635   1.635   1.635   1.635   1.635   1.635   1.635   1.635
   144.44    1.635   1.635   1.635   1.635   1.635   1.635   1.635   1.635   1.635   1.635
   128.89    1.635   1.635   1.635   1.635   1.635   1.635   1.635   1.635   1.635   1.635
   113.33    1.635   1.635   1.635   1.635   1.635   1.635   1.635   1.635   1.635   1.635
    97.78    1.635   1.635   1.635   1.635   1.635   1.635   1.635   1.635   1.635   1.635
    82.22    1.635   1.635   1.635   1.635   1.635   1.635   1.635   1.635   1.635   1.635
    66.67    1.635   1.635   1.635   1.635   1.635   1.635   1.635   1.635   1.635   1.635
    51.11    1.635   1.635   1.635   1.635   1.635   1.635   1.635   1.635   1.635   1.635
    35.56    1.635   1.635   1.635   1.635   1.635   1.635   1.635   1.635   1.635   1.635
    20.00    1.635   1.635   1.635   1.635   1.635   1.635   1.635   1.635   1.635   1.635

   Height   Standard deviation at grid points for the w component:
   160.00    1.026   1.026   1.026   1.026   1.026   1.026   1.026   1.026   1.026   1.026
   144.44    1.026   1.026   1.026   1.026   1.026   1.026   1.026   1.026   1.026   1.026
   128.89    1.026   1.026   1.026   1.026   1.026   1.026   1.026   1.026   1.026   1.026
   113.33    1.026   1.026   1.026   1.026   1.026   1.026   1.026   1.026   1.026   1.026
    97.78    1.026   1.026   1.026   1.026   1.026   1.026   1.026   1.026   1.026   1.026
    82.22    1.026   1.026   1.026   1.026   1.026   1.026   1.026   1.026   1.026   1.026
    66.67    1.026   1.026   1.026   1.026   1.026   1.026   1.026   1.026   1.026   1.026
    51.11    1.026   1.026   1.026   1.026   1.026   1.026   1.026   1.026   1.026   1.026
    35.56    1.026   1.026   1.026   1.026   1.026   1.026   1.026   1.026   1.026   1.026
    20.00    1.026   1.026   1.026   1.026   1.026   1.026   1.026   1.026   1.026   1.026

   Mean standard deviation across all grid points:
      u component:    2.258 m/s
      v component:    1.635 m/s
      w component:    1.026 m/s


U-component (X) statistics from the interpolated hub point:

   Mean =   9.9940 m/s
   TI   =  20.6153 %


Normalizing Parameters for Binary Data (approximate statistics):

   UBar  =  10.0000 m/s
   TI(u) =  21.4553 %
   TI(v) =  16.3546 %
   TI(w) =  10.2581 %

   Height Offset =   0.0000 m
   Grid Base     =  20.0000 m

Nyquist frequency of turbulent wind field =        10.000 Hz


Processing complete.  23.976 CPU seconds used.
