
This summary file was generated by TurbSim (v2.00.01a-bjj, 14-Oct-2014) on 07-Apr-2015 at 15:37:58.


Runtime Options:

    123456  Random seed #1
    789012  Random seed #2
         F  Output binary HH turbulence parameters?
         F  Output formatted turbulence parameters?
         F  Output AeroDyn HH files?
         T  Output AeroDyn FF files?
         T  Output BLADED FF files?
         F  Output tower data?
         F  Output formatted FF files?
         F  Output coherent turbulence time step file?
         T  Clockwise rotation when looking downwind?
 0 -  NONE  IEC turbulence models scaled to exact specified standard deviation


Turbine/Model Specifications:

         5  Vertical grid-point matrix dimension
         5  Horizontal grid-point matrix dimension
     0.050  Time step [seconds]
   600.000  Analysis time [seconds]
   600.000  Usable output time [seconds]
    90.000  Hub height [m]
   140.000  Grid height [m]
   140.000  Grid width [m]
     0.000  Vertical flow angle [degrees]
     0.000  Horizontal flow angle [degrees]


Meteorological Boundary Conditions:

    IECKAI  IEC Kaimal spectral model
         1  IEC standard: IEC 61400-1 Ed. 3: 2005
         C  IEC turbulence characteristic
       NTM  IEC Normal Turbulence Model
       N/A  IEC Extreme Turbulence Model (ETM) "c" parameter [m/s]
       IEC  Wind profile type
    90.000  Reference height [m]
    10.000  Reference wind speed [m/s]
       N/A  Jet height [m]
     0.200  Power law exponent
     0.030  Surface roughness length [m]


Non-IEC Meteorological Boundary Conditions:

       N/A  Site latitude [degrees]
       N/A  Gradient Richardson number
       N/A  Friction or shear velocity [m/s]
       N/A  Mixing layer depth [m]
       N/A  Mean hub u'w' Reynolds stress
       N/A  Mean hub u'v' Reynolds stress
       N/A  Mean hub v'w' Reynolds stress


Spatial Coherence Models:

       IEC  u-component coherence model
      NONE  v-component coherence model
      NONE  w-component coherence model
(   12.000, 0.353E-03)  u-component coherence parameters
                   N/A  v-component coherence parameters
                   N/A  w-component coherence parameters
       N/A  Coherence exponent


You have requested that the following file(s) be generated:

   5pts_NoSc.bts (AeroDyn/TurbSim full-field wind file)
   5pts_NoSc.wnd (AeroDyn/BLADED full-field wnd file)


Turbulence Simulation Scaling Parameter Summary:

   Turbulence model used                            =  IEC Kaimal
   Turbulence characteristic                        =  C
   IEC turbulence type                              =  Normal Turbulence Model
   IEC standard                                     =  IEC 61400-1 Ed. 3: 2005
   Mean wind speed at hub height                    =   10.000 m/s
   Expected value of turbulence intensity at 15 m/s =   12.000%
   Characteristic value of standard deviation       =    1.572 m/s
   Turbulence scale                                 =   42.000 m
   u-component integral scale                       =  340.200 m
   Coherency scale                                  =  340.200 m
   Characteristic value of hub turbulence intensity =   15.720%
   Gradient Richardson number                       =    0.000

   Wind profile type                                =  Power law on rotor disk, logarithmic elsewhere
   Power law exponent                               =    0.200
   Mean shear across rotor disk                     =    0.027 (m/s)/m
   Assumed rotor diameter                           =  140.000 m
   Surface roughness length                         =    0.030 m

   Nyquist frequency of turbulent wind field        =   10.000 Hz

   Number of time steps in the FFT                  =    12288
   Number of time steps output                      =    12280
   Number of points simulated                       =       25


Mean Flow Angles:

   Vertical   =   0.0 degrees
   Horizontal =   0.0 degrees

Mean Wind Speed Profile:

   Height    Wind Speed   Horizontal Angle  Vertical Angle  U-comp (X)   V-comp (Y)   W-comp (Z)
     (m)        (m/s)         (degrees)       (degrees)       (m/s)        (m/s)        (m/s)   
   ------    ----------   ----------------  --------------  ----------   ----------   ----------
    160.0       11.22            0.00            0.00         11.22         0.00         0.00
    125.0       10.68            0.00            0.00         10.68         0.00         0.00
     90.0       10.00            0.00            0.00         10.00         0.00         0.00
     55.0        9.06            0.00            0.00          9.06         0.00         0.00
     20.0        7.40            0.00            0.00          7.40         0.00         0.00


Harvested Random Seeds after Generation of the Random Numbers:

       713305 Harvested seed # 1
     12585697 Harvested seed # 2
      8577778 Harvested seed # 3
       264724 Harvested seed # 4
      7135974 Harvested seed # 5
      4000363 Harvested seed # 6
      1237677 Harvested seed # 7
     10095292 Harvested seed # 8
   1812616025 Harvested seed # 9
    583010785 Harvested seed #10
    159574002 Harvested seed #11
   -838539500 Harvested seed #12


Hub-Height Simulated Turbulence Statistical Summary:

   Type of Wind        Min (m/s)   Mean (m/s)    Max (m/s)  Sigma (m/s)       TI (%)
   ----------------    ---------   ----------    ---------  -----------       ------
   Longitudinal (u)         5.17        10.00        15.26        1.541       15.409
   Lateral (v)             -3.71        -0.00         4.32        1.227       12.266
   Vertical (w)            -2.46        -0.00         2.98        0.769        7.694
   U component              5.17        10.00        15.26        1.541       15.409
   V component             -3.71        -0.00         4.32        1.227       12.266
   W component             -2.46        -0.00         2.98        0.769        7.694
   Horizontal (U&V)         5.36        10.08        15.45        1.531       15.192
   Total                    5.36        10.11        15.45        1.530       15.143

                       Min Reynolds     Mean Reynolds    Max Reynolds    Correlation
   Product             Stress (m/s)^2   Stress (m/s)^2   Stress (m/s)^2  Coefficient
   ----------------    --------------   --------------   --------------  -----------
   u'w'                     -6.482            -0.043             9.632        -0.036
   u'v'                    -15.781            -0.423             8.162        -0.224
   v'w'                     -6.041            -0.025             4.830        -0.026


   Friction Velocity (Ustar)  =      0.207 m/s
   Maximum Instantaneous TKE  =     18.145 (m/s)^2
   Maximum Instantaneous CTKE =      9.168 (m/s)^2


Grid Point Variance Summary:

   Y-coord  -70.00  -35.00    0.00   35.00   70.00

   Height   Standard deviation at grid points for the u component:
   160.00    1.647   1.345   1.348   1.267   1.125
   125.00    1.734   1.348   1.435   1.453   1.317
    90.00    1.625   1.486   1.541   1.402   1.200
    55.00    1.446   1.487   1.688   1.525   1.362
    20.00    1.486   1.495   1.586   1.394   1.301

   Height   Standard deviation at grid points for the v component:
   160.00    1.227   1.227   1.227   1.227   1.227
   125.00    1.227   1.227   1.227   1.227   1.227
    90.00    1.227   1.227   1.227   1.227   1.227
    55.00    1.227   1.227   1.227   1.227   1.227
    20.00    1.227   1.227   1.227   1.227   1.227

   Height   Standard deviation at grid points for the w component:
   160.00    0.769   0.769   0.769   0.769   0.769
   125.00    0.769   0.769   0.769   0.769   0.769
    90.00    0.769   0.769   0.769   0.769   0.769
    55.00    0.769   0.769   0.769   0.769   0.769
    20.00    0.769   0.769   0.769   0.769   0.769

   Mean standard deviation across all grid points:
      u component:    1.442 m/s
      v component:    1.227 m/s
      w component:    0.769 m/s


U-component (X) statistics from the interpolated hub point:

   Mean =  10.0000 m/s
   TI   =  15.4093 %


Normalizing Parameters for Binary Data (approximate statistics):

   UBar  =  10.0000 m/s
   TI(u) =  15.4093 %
   TI(v) =  12.2660 %
   TI(w) =   7.6936 %

   Height Offset =   0.0000 m
   Grid Base     =  20.0000 m

Creating a PERIODIC output file.


Processing complete.  0.77876 CPU seconds used.
