
This summary file was generated by TurbSim (v1.06.00, 21-Sep-2012) on 24-Mar-2015 at 16:49:31.


Runtime Options:

   4625451  Random seed #1
    RANLUX  Type of random number generator
         F  Output binary HH turbulence parameters?
         F  Output formatted turbulence parameters?
         F  Output AeroDyn HH files?
         T  Output AeroDyn FF files?
         T  Output BLADED FF files?
         F  Output tower data?
         F  Output formatted FF files?
         F  Output coherent turbulence time step file?
         F  Clockwise rotation when looking downwind?
 0 -  NONE  IEC turbulence models scaled to exact specified standard deviation


Turbine/Model Specifications:

        10  Vertical grid-point matrix dimension
        10  Horizontal grid-point matrix dimension
     0.050  Time step [seconds]
   600.000  Analysis time [seconds]
   600.000  Usable output time [seconds]
    90.000  Hub height [m]
   140.000  Grid height [m]
   140.000  Grid width [m]
     0.000  Vertical flow angle [degrees]
     0.000  Horizontal flow angle [degrees]


Meteorological Boundary Conditions:

    IECKAI  IEC Kaimal spectral model
         1  IEC standard: IEC 61400-1 Ed. 3: 2005
         A  IEC turbulence characteristic
       NTM  IEC Normal Turbulence Model
       N/A  IEC Extreme Turbulence Model (ETM) "c" parameter [m/s]
       IEC  Wind profile type
    90.000  Reference height [m]
    10.000  Reference wind speed [m/s]
       N/A  Jet height [m]
     0.200  Power law exponent
     0.030  Surface roughness length [m]


You have requested that the following file(s) be generated:

   IEC_noscale_10pts.bts (AeroDyn/TurbSim full-field wind file)
   IEC_noscale_10pts.wnd (AeroDyn/BLADED full-field wnd file)


Turbulence Simulation Scaling Parameter Summary:

   Turbulence model used                            =  IEC Kaimal
   Turbulence characteristic                        =  A
   IEC turbulence type                              =  Normal Turbulence Model
   IEC standard                                     =  IEC 61400-1 Ed. 3: 2005
   Mean wind speed at hub height                    =   10.000 m/s
   Expected value of turbulence intensity at 15 m/s =   16.000%
   Characteristic value of standard deviation       =    2.096 m/s
   Turbulence scale                                 =   42.000 m
   u-component integral scale                       =  340.200 m
   Coherency scale                                  =  340.200 m
   Characteristic value of hub turbulence intensity =   20.960%
   Gradient Richardson number                       =    0.000

   Wind profile type                                =  Power law on rotor disk, logarithmic elsewhere
   Power law exponent                               =    0.200
   Mean shear across rotor disk                     =    0.027 (m/s)/m
   Assumed rotor diameter                           =  140.000 m
   Surface roughness length                         =    0.030 m

   Number of time steps in the FFT                  =    12000
   Number of time steps output                      =    12000


Mean Flow Angles:

   Vertical   =   0.0 degrees
   Horizontal =   0.0 degrees

Mean Wind Speed Profile:

   Height    Wind Speed   Horizontal Angle  U-comp (X)   V-comp (Y)   W-comp (Z)
     (m)        (m/s)         (degrees)       (m/s)        (m/s)        (m/s)   
   ------    ----------   ----------------  ----------   ----------   ----------
    160.0       11.22            0.00         11.22         0.00         0.00
    144.4       10.99            0.00         10.99         0.00         0.00
    128.9       10.74            0.00         10.74         0.00         0.00
    113.3       10.47            0.00         10.47         0.00         0.00
     97.8       10.17            0.00         10.17         0.00         0.00
     90.0       10.00            0.00         10.00         0.00         0.00
     82.2        9.82            0.00          9.82         0.00         0.00
     66.7        9.42            0.00          9.42         0.00         0.00
     51.1        8.93            0.00          8.93         0.00         0.00
     35.6        8.30            0.00          8.30         0.00         0.00
     20.0        7.40            0.00          7.40         0.00         0.00


Harvested Random Seeds after Generation of the Random Numbers:

     16892250 K1
            0 K2


Hub-Height Simulated Turbulence Statistical Summary:

   Type of Wind        Min (m/s)   Mean (m/s)    Max (m/s)  Sigma (m/s)       TI (%)
   ----------------    ---------   ----------    ---------  -----------       ------
   Longitudinal (u)         4.05        10.00        16.21        2.115       21.152
   Lateral (v)             -5.18         0.00         6.65        1.635       16.347
   Vertical (w)            -4.59         0.00         3.53        1.026       10.257
   U component              4.05        10.00        16.21        2.115       21.152
   V component             -5.18         0.00         6.65        1.635       16.347
   W component             -4.59         0.00         3.53        1.026       10.257
   Horizontal (U&V)         4.07        10.14        16.23        2.076       20.468
   Total                    4.07        10.20        16.24        2.060       20.201

                       Min Reynolds     Mean Reynolds    Max Reynolds    Correlation
   Product             Stress (m/s)^2   Stress (m/s)^2   Stress (m/s)^2  Coefficient
   ----------------    --------------   --------------   --------------  -----------
   u'w'                    -13.118             0.118            14.674         0.054
   u'v'                    -22.551             0.088            13.555         0.026
   v'w'                    -11.737             0.081            14.056         0.048


   Friction Velocity (Ustar)  =      0.344 m/s
   Maximum Instantaneous TKE  =     27.583 (m/s)^2
   Maximum Instantaneous CTKE =     11.280 (m/s)^2


Grid Point Variance Summary:

   Y-coord  -70.00  -54.44  -38.89  -23.33   -7.78    7.78   23.33   38.89   54.44   70.00

   Height   Standard deviation at grid points for the u component:
   160.00    1.634   1.870   1.999   1.933   2.025   2.046   1.965   1.949   2.085   1.846
   144.44    1.777   1.846   1.970   1.871   1.834   1.825   1.901   1.933   2.101   2.119
   128.89    2.171   2.292   2.397   2.252   2.221   2.069   1.854   2.125   2.251   2.308
   113.33    2.215   2.364   2.437   2.299   2.045   2.158   1.919   1.897   2.177   2.406
    97.78    2.291   2.286   2.082   2.243   2.019   2.130   1.912   2.045   2.024   2.239
    82.22    2.159   2.235   2.320   2.124   2.044   1.941   2.094   2.286   2.229   2.104
    66.67    1.978   2.081   1.908   2.108   2.220   2.364   2.010   2.109   2.249   2.154
    51.11    2.066   2.080   1.848   2.046   2.273   2.111   1.996   2.210   2.182   2.080
    35.56    2.033   2.001   1.706   1.925   2.100   2.017   1.974   2.031   2.101   1.833
    20.00    1.978   1.957   1.876   1.910   2.053   1.723   1.869   2.025   1.892   1.846

   Height   Standard deviation at grid points for the v component:
   160.00    1.635   1.635   1.635   1.635   1.635   1.635   1.635   1.635   1.635   1.635
   144.44    1.635   1.635   1.635   1.635   1.635   1.635   1.635   1.635   1.635   1.635
   128.89    1.635   1.635   1.635   1.635   1.635   1.635   1.635   1.635   1.635   1.635
   113.33    1.635   1.635   1.635   1.635   1.635   1.635   1.635   1.635   1.635   1.635
    97.78    1.635   1.635   1.635   1.635   1.635   1.635   1.635   1.635   1.635   1.635
    82.22    1.635   1.635   1.635   1.635   1.635   1.635   1.635   1.635   1.635   1.635
    66.67    1.635   1.635   1.635   1.635   1.635   1.635   1.635   1.635   1.635   1.635
    51.11    1.635   1.635   1.635   1.635   1.635   1.635   1.635   1.635   1.635   1.635
    35.56    1.635   1.635   1.635   1.635   1.635   1.635   1.635   1.635   1.635   1.635
    20.00    1.635   1.635   1.635   1.635   1.635   1.635   1.635   1.635   1.635   1.635

   Height   Standard deviation at grid points for the w component:
   160.00    1.026   1.026   1.026   1.026   1.026   1.026   1.026   1.026   1.026   1.026
   144.44    1.026   1.026   1.026   1.026   1.026   1.026   1.026   1.026   1.026   1.026
   128.89    1.026   1.026   1.026   1.026   1.026   1.026   1.026   1.026   1.026   1.026
   113.33    1.026   1.026   1.026   1.026   1.026   1.026   1.026   1.026   1.026   1.026
    97.78    1.026   1.026   1.026   1.026   1.026   1.026   1.026   1.026   1.026   1.026
    82.22    1.026   1.026   1.026   1.026   1.026   1.026   1.026   1.026   1.026   1.026
    66.67    1.026   1.026   1.026   1.026   1.026   1.026   1.026   1.026   1.026   1.026
    51.11    1.026   1.026   1.026   1.026   1.026   1.026   1.026   1.026   1.026   1.026
    35.56    1.026   1.026   1.026   1.026   1.026   1.026   1.026   1.026   1.026   1.026
    20.00    1.026   1.026   1.026   1.026   1.026   1.026   1.026   1.026   1.026   1.026

   Mean standard deviation across all grid points:
      u component:    2.061 m/s
      v component:    1.635 m/s
      w component:    1.026 m/s


U-component (X) statistics from the interpolated hub point:

   Mean =   9.9940 m/s
   TI   =  17.6884 %


Normalizing Parameters for Binary Data (approximate statistics):

   UBar  =  10.0000 m/s
   TI(u) =  21.1517 %
   TI(v) =  16.3475 %
   TI(w) =  10.2570 %

   Height Offset =   0.0000 m
   Grid Base     =  20.0000 m

Nyquist frequency of turbulent wind field =        10.000 Hz


Processing complete.  22.825 CPU seconds used.
