
This summary file was generated by TurbSim (v2.00.01a-bjj, 14-Oct-2014) on 14-Jan-2016 at 10:27:58.


Runtime Options:

 -58490046  Random seed #1
-496407563  Random seed #2
         F  Output binary HH turbulence parameters?
         F  Output formatted turbulence parameters?
         F  Output AeroDyn HH files?
         T  Output AeroDyn FF files?
         F  Output BLADED FF files?
         F  Output tower data?
         F  Output formatted FF files?
         F  Output coherent turbulence time step file?
         T  Clockwise rotation when looking downwind?
 0 -  NONE  IEC turbulence models scaled to exact specified standard deviation


Turbine/Model Specifications:

        15  Vertical grid-point matrix dimension
        15  Horizontal grid-point matrix dimension
     0.050  Time step [seconds]
   630.000  Analysis time [seconds]
   630.000  Usable output time [seconds]
    60.000  Hub height [m]
    56.000  Grid height [m]
    56.000  Grid width [m]
     0.000  Vertical flow angle [degrees]
     0.000  Horizontal flow angle [degrees]


Meteorological Boundary Conditions:

    USRINP  Uniform user-input spectral model
       N/A  IEC standard
       N/A  IEC turbulence characteristic
       N/A  IEC turbulence type
       N/A  IEC Extreme Turbulence Model (ETM) "c" parameter [m/s]
       PL   Wind profile type
   100.000  Reference height [m]
    16.300  Reference wind speed [m/s]
       N/A  Jet height [m]
     0.200  Power law exponent
     0.030  Surface roughness length [m]


Non-IEC Meteorological Boundary Conditions:

    45.000  Site latitude [degrees]
     0.050  Gradient Richardson number
     0.772  Friction or shear velocity [m/s]
       N/A  Mixing layer depth [m]
       N/A  Mean hub u'w' Reynolds stress
       N/A  Mean hub u'v' Reynolds stress
       N/A  Mean hub v'w' Reynolds stress


Spatial Coherence Models:

       IEC  u-component coherence model
      NONE  v-component coherence model
      NONE  w-component coherence model
(   12.000, 0.353E-03)  u-component coherence parameters
                   N/A  v-component coherence parameters
                   N/A  w-component coherence parameters
       N/A  Coherence exponent


You have requested that the following file(s) be generated:

   WP0.75A08V00\WP0.75A08V00_1.bts (AeroDyn/TurbSim full-field wind file)


Turbulence Simulation Scaling Parameter Summary:

   Turbulence model used                            =  Uniform user-input
   Gradient Richardson number                       =    0.050
   Monin-Obukhov (M-O) z/L parameter                =    0.067
   Monin-Obukhov (M-O) length scale                 =  900.000 m
   Mean wind speed at hub height                    =   14.717 m/s

   Wind profile type                                =  Power law
   Power law exponent                               =    0.200
   Mean shear across rotor disk                     =    0.052 (m/s)/m
   Assumed rotor diameter                           =   56.000 m
   Surface roughness length                         =    0.030 m

   Nyquist frequency of turbulent wind field        =   10.000 Hz

   Number of time steps in the FFT                  =    12600
   Number of time steps output                      =    12600
   Number of points simulated                       =      225


Mean Flow Angles:

   Vertical   =   0.0 degrees
   Horizontal =   0.0 degrees

Mean Wind Speed Profile:

   Height    Wind Speed   Horizontal Angle  Vertical Angle  U-comp (X)   V-comp (Y)   W-comp (Z)
     (m)        (m/s)         (degrees)       (degrees)       (m/s)        (m/s)        (m/s)   
   ------    ----------   ----------------  --------------  ----------   ----------   ----------
     88.0       15.89            0.00            0.00         15.89         0.00         0.00
     84.0       15.74            0.00            0.00         15.74         0.00         0.00
     80.0       15.59            0.00            0.00         15.59         0.00         0.00
     76.0       15.43            0.00            0.00         15.43         0.00         0.00
     72.0       15.26            0.00            0.00         15.26         0.00         0.00
     68.0       15.09            0.00            0.00         15.09         0.00         0.00
     64.0       14.91            0.00            0.00         14.91         0.00         0.00
     60.0       14.72            0.00            0.00         14.72         0.00         0.00
     56.0       14.52            0.00            0.00         14.52         0.00         0.00
     52.0       14.30            0.00            0.00         14.30         0.00         0.00
     48.0       14.07            0.00            0.00         14.07         0.00         0.00
     44.0       13.83            0.00            0.00         13.83         0.00         0.00
     40.0       13.57            0.00            0.00         13.57         0.00         0.00
     36.0       13.29            0.00            0.00         13.29         0.00         0.00
     32.0       12.98            0.00            0.00         12.98         0.00         0.00


Harvested Random Seeds after Generation of the Random Numbers:

    867101775 Harvested seed # 1
    234220367 Harvested seed # 2


Hub-Height Simulated Turbulence Statistical Summary:

   Type of Wind        Min (m/s)   Mean (m/s)    Max (m/s)  Sigma (m/s)       TI (%)
   ----------------    ---------   ----------    ---------  -----------       ------
   Longitudinal (u)         8.18        14.72        22.20        2.169       14.736
   Lateral (v)             -6.10         0.00         6.65        1.680       11.415
   Vertical (w)            -3.28        -0.00         3.82        1.050        7.134
   U component              8.18        14.72        22.20        2.169       14.736
   V component             -6.10         0.00         6.65        1.680       11.415
   W component             -3.28        -0.00         3.82        1.050        7.134
   Horizontal (U&V)         8.45        14.81        22.24        2.163       14.602
   Total                    8.56        14.85        22.26        2.160       14.543

                       Min Reynolds     Mean Reynolds    Max Reynolds    Correlation
   Product             Stress (m/s)^2   Stress (m/s)^2   Stress (m/s)^2  Coefficient
   ----------------    --------------   --------------   --------------  -----------
   u'w'                    -12.951             0.002            14.758         0.001
   u'v'                    -14.809             0.553            20.770         0.152
   v'w'                    -12.363            -0.105            14.055        -0.060


   Friction Velocity (Ustar)  =      0.039 m/s
   Maximum Instantaneous TKE  =     29.170 (m/s)^2
   Maximum Instantaneous CTKE =     10.877 (m/s)^2


Grid Point Variance Summary:

   Y-coord  -28.00  -24.00  -20.00  -16.00  -12.00   -8.00   -4.00    0.00    4.00    8.00   12.00   16.00   20.00   24.00   28.00

   Height   Standard deviation at grid points for the u component:
    88.00    2.219   2.270   2.338   2.289   2.326   2.305   2.371   2.371   2.378   2.360   2.442   2.468   2.364   2.381   2.323
    84.00    2.203   2.283   2.392   2.286   2.303   2.312   2.274   2.167   2.221   2.352   2.363   2.391   2.430   2.368   2.329
    80.00    2.225   2.270   2.321   2.214   2.136   2.097   2.180   2.225   2.290   2.351   2.364   2.391   2.296   2.238   2.219
    76.00    2.168   2.197   2.247   2.205   2.108   2.109   2.067   2.208   2.275   2.252   2.263   2.308   2.205   2.225   2.263
    72.00    2.171   2.169   2.197   2.096   2.057   2.062   2.037   2.095   2.204   2.123   2.201   2.247   2.224   2.191   2.232
    68.00    2.250   2.189   2.214   1.996   2.087   2.102   2.123   2.134   2.208   2.175   2.209   2.202   2.169   2.158   2.224
    64.00    2.113   2.134   2.096   2.093   2.065   2.129   2.091   2.063   2.181   2.179   2.267   2.264   2.305   2.177   2.170
    60.00    2.123   2.019   2.078   2.067   2.071   2.038   2.147   2.169   2.159   2.215   2.225   2.297   2.224   2.256   2.158
    56.00    2.274   2.149   2.171   2.161   2.194   2.178   2.151   2.147   2.115   2.077   2.101   2.180   2.182   2.197   2.217
    52.00    2.221   2.170   2.223   2.070   2.155   2.211   2.211   2.173   2.050   2.098   2.093   2.130   2.061   2.068   2.137
    48.00    2.267   2.241   2.177   2.052   2.169   2.221   2.228   2.134   2.056   1.952   2.111   2.020   2.035   2.084   2.104
    44.00    2.187   2.195   2.110   2.053   2.069   2.103   2.061   1.992   1.916   1.939   2.011   2.076   2.081   1.993   2.004
    40.00    2.145   2.080   2.148   2.072   2.037   1.949   2.004   2.081   1.942   1.876   1.931   1.970   2.000   1.938   2.094
    36.00    2.066   1.995   2.031   2.045   2.000   2.014   2.026   1.970   2.003   1.950   1.857   1.960   1.992   1.870   2.022
    32.00    2.100   2.009   2.026   2.101   2.055   2.020   1.949   1.949   1.984   1.884   1.896   1.930   1.843   1.886   2.028

   Height   Standard deviation at grid points for the v component:
    88.00    1.680   1.680   1.680   1.680   1.680   1.680   1.680   1.680   1.680   1.680   1.680   1.680   1.680   1.680   1.680
    84.00    1.680   1.680   1.680   1.680   1.680   1.680   1.680   1.680   1.680   1.680   1.680   1.680   1.680   1.680   1.680
    80.00    1.680   1.680   1.680   1.680   1.680   1.680   1.680   1.680   1.680   1.680   1.680   1.680   1.680   1.680   1.680
    76.00    1.680   1.680   1.680   1.680   1.680   1.680   1.680   1.680   1.680   1.680   1.680   1.680   1.680   1.680   1.680
    72.00    1.680   1.680   1.680   1.680   1.680   1.680   1.680   1.680   1.680   1.680   1.680   1.680   1.680   1.680   1.680
    68.00    1.680   1.680   1.680   1.680   1.680   1.680   1.680   1.680   1.680   1.680   1.680   1.680   1.680   1.680   1.680
    64.00    1.680   1.680   1.680   1.680   1.680   1.680   1.680   1.680   1.680   1.680   1.680   1.680   1.680   1.680   1.680
    60.00    1.680   1.680   1.680   1.680   1.680   1.680   1.680   1.680   1.680   1.680   1.680   1.680   1.680   1.680   1.680
    56.00    1.680   1.680   1.680   1.680   1.680   1.680   1.680   1.680   1.680   1.680   1.680   1.680   1.680   1.680   1.680
    52.00    1.680   1.680   1.680   1.680   1.680   1.680   1.680   1.680   1.680   1.680   1.680   1.680   1.680   1.680   1.680
    48.00    1.680   1.680   1.680   1.680   1.680   1.680   1.680   1.680   1.680   1.680   1.680   1.680   1.680   1.680   1.680
    44.00    1.680   1.680   1.680   1.680   1.680   1.680   1.680   1.680   1.680   1.680   1.680   1.680   1.680   1.680   1.680
    40.00    1.680   1.680   1.680   1.680   1.680   1.680   1.680   1.680   1.680   1.680   1.680   1.680   1.680   1.680   1.680
    36.00    1.680   1.680   1.680   1.680   1.680   1.680   1.680   1.680   1.680   1.680   1.680   1.680   1.680   1.680   1.680
    32.00    1.680   1.680   1.680   1.680   1.680   1.680   1.680   1.680   1.680   1.680   1.680   1.680   1.680   1.680   1.680

   Height   Standard deviation at grid points for the w component:
    88.00    1.050   1.050   1.050   1.050   1.050   1.050   1.050   1.050   1.050   1.050   1.050   1.050   1.050   1.050   1.050
    84.00    1.050   1.050   1.050   1.050   1.050   1.050   1.050   1.050   1.050   1.050   1.050   1.050   1.050   1.050   1.050
    80.00    1.050   1.050   1.050   1.050   1.050   1.050   1.050   1.050   1.050   1.050   1.050   1.050   1.050   1.050   1.050
    76.00    1.050   1.050   1.050   1.050   1.050   1.050   1.050   1.050   1.050   1.050   1.050   1.050   1.050   1.050   1.050
    72.00    1.050   1.050   1.050   1.050   1.050   1.050   1.050   1.050   1.050   1.050   1.050   1.050   1.050   1.050   1.050
    68.00    1.050   1.050   1.050   1.050   1.050   1.050   1.050   1.050   1.050   1.050   1.050   1.050   1.050   1.050   1.050
    64.00    1.050   1.050   1.050   1.050   1.050   1.050   1.050   1.050   1.050   1.050   1.050   1.050   1.050   1.050   1.050
    60.00    1.050   1.050   1.050   1.050   1.050   1.050   1.050   1.050   1.050   1.050   1.050   1.050   1.050   1.050   1.050
    56.00    1.050   1.050   1.050   1.050   1.050   1.050   1.050   1.050   1.050   1.050   1.050   1.050   1.050   1.050   1.050
    52.00    1.050   1.050   1.050   1.050   1.050   1.050   1.050   1.050   1.050   1.050   1.050   1.050   1.050   1.050   1.050
    48.00    1.050   1.050   1.050   1.050   1.050   1.050   1.050   1.050   1.050   1.050   1.050   1.050   1.050   1.050   1.050
    44.00    1.050   1.050   1.050   1.050   1.050   1.050   1.050   1.050   1.050   1.050   1.050   1.050   1.050   1.050   1.050
    40.00    1.050   1.050   1.050   1.050   1.050   1.050   1.050   1.050   1.050   1.050   1.050   1.050   1.050   1.050   1.050
    36.00    1.050   1.050   1.050   1.050   1.050   1.050   1.050   1.050   1.050   1.050   1.050   1.050   1.050   1.050   1.050
    32.00    1.050   1.050   1.050   1.050   1.050   1.050   1.050   1.050   1.050   1.050   1.050   1.050   1.050   1.050   1.050

   Mean standard deviation across all grid points:
      u component:    2.147 m/s
      v component:    1.680 m/s
      w component:    1.050 m/s


U-component (X) statistics from the interpolated hub point:

   Mean =  14.7170 m/s
   TI   =  14.7356 %


Processing complete.  7.332 CPU seconds used.
