
This summary file was generated by TurbSim (v2.00.01a-bjj, 14-Oct-2014) on 17-Jan-2016 at 17:25:54.


Runtime Options:

 745114648  Random seed #1
-154794614  Random seed #2
         F  Output binary HH turbulence parameters?
         F  Output formatted turbulence parameters?
         F  Output AeroDyn HH files?
         T  Output AeroDyn FF files?
         F  Output BLADED FF files?
         F  Output tower data?
         F  Output formatted FF files?
         F  Output coherent turbulence time step file?
         T  Clockwise rotation when looking downwind?
 0 -  NONE  IEC turbulence models scaled to exact specified standard deviation


Turbine/Model Specifications:

        15  Vertical grid-point matrix dimension
        15  Horizontal grid-point matrix dimension
     0.050  Time step [seconds]
   630.000  Analysis time [seconds]
   630.000  Usable output time [seconds]
    60.000  Hub height [m]
    56.000  Grid height [m]
    56.000  Grid width [m]
     0.000  Vertical flow angle [degrees]
     0.000  Horizontal flow angle [degrees]


Meteorological Boundary Conditions:

    USRINP  Uniform user-input spectral model
       N/A  IEC standard
       N/A  IEC turbulence characteristic
       N/A  IEC turbulence type
       N/A  IEC Extreme Turbulence Model (ETM) "c" parameter [m/s]
       PL   Wind profile type
   100.000  Reference height [m]
     7.600  Reference wind speed [m/s]
       N/A  Jet height [m]
     0.200  Power law exponent
     0.030  Surface roughness length [m]


Non-IEC Meteorological Boundary Conditions:

    45.000  Site latitude [degrees]
     0.050  Gradient Richardson number
     0.360  Friction or shear velocity [m/s]
       N/A  Mixing layer depth [m]
       N/A  Mean hub u'w' Reynolds stress
       N/A  Mean hub u'v' Reynolds stress
       N/A  Mean hub v'w' Reynolds stress


Spatial Coherence Models:

       IEC  u-component coherence model
      NONE  v-component coherence model
      NONE  w-component coherence model
(   12.000, 0.353E-03)  u-component coherence parameters
                   N/A  v-component coherence parameters
                   N/A  w-component coherence parameters
       N/A  Coherence exponent


You have requested that the following file(s) be generated:

   WP0.75A08V00\WP0.75A08V00_2.bts (AeroDyn/TurbSim full-field wind file)


Turbulence Simulation Scaling Parameter Summary:

   Turbulence model used                            =  Uniform user-input
   Gradient Richardson number                       =    0.050
   Monin-Obukhov (M-O) z/L parameter                =    0.067
   Monin-Obukhov (M-O) length scale                 =  900.000 m
   Mean wind speed at hub height                    =    6.862 m/s

   Wind profile type                                =  Power law
   Power law exponent                               =    0.200
   Mean shear across rotor disk                     =    0.024 (m/s)/m
   Assumed rotor diameter                           =   56.000 m
   Surface roughness length                         =    0.030 m

   Nyquist frequency of turbulent wind field        =   10.000 Hz

   Number of time steps in the FFT                  =    12600
   Number of time steps output                      =    12600
   Number of points simulated                       =      225


Mean Flow Angles:

   Vertical   =   0.0 degrees
   Horizontal =   0.0 degrees

Mean Wind Speed Profile:

   Height    Wind Speed   Horizontal Angle  Vertical Angle  U-comp (X)   V-comp (Y)   W-comp (Z)
     (m)        (m/s)         (degrees)       (degrees)       (m/s)        (m/s)        (m/s)   
   ------    ----------   ----------------  --------------  ----------   ----------   ----------
     88.0        7.41            0.00            0.00          7.41         0.00         0.00
     84.0        7.34            0.00            0.00          7.34         0.00         0.00
     80.0        7.27            0.00            0.00          7.27         0.00         0.00
     76.0        7.19            0.00            0.00          7.19         0.00         0.00
     72.0        7.12            0.00            0.00          7.12         0.00         0.00
     68.0        7.04            0.00            0.00          7.04         0.00         0.00
     64.0        6.95            0.00            0.00          6.95         0.00         0.00
     60.0        6.86            0.00            0.00          6.86         0.00         0.00
     56.0        6.77            0.00            0.00          6.77         0.00         0.00
     52.0        6.67            0.00            0.00          6.67         0.00         0.00
     48.0        6.56            0.00            0.00          6.56         0.00         0.00
     44.0        6.45            0.00            0.00          6.45         0.00         0.00
     40.0        6.33            0.00            0.00          6.33         0.00         0.00
     36.0        6.20            0.00            0.00          6.20         0.00         0.00
     32.0        6.05            0.00            0.00          6.05         0.00         0.00


Harvested Random Seeds after Generation of the Random Numbers:

   1386057037 Harvested seed # 1
    311436520 Harvested seed # 2


Hub-Height Simulated Turbulence Statistical Summary:

   Type of Wind        Min (m/s)   Mean (m/s)    Max (m/s)  Sigma (m/s)       TI (%)
   ----------------    ---------   ----------    ---------  -----------       ------
   Longitudinal (u)        -0.73         6.86        13.81        1.927       28.082
   Lateral (v)             -6.00        -0.00         6.41        1.680       24.484
   Vertical (w)            -3.99        -0.00         4.63        1.050       15.301
   U component             -0.73         6.86        13.81        1.927       28.082
   V component             -6.00        -0.00         6.41        1.680       24.484
   W component             -3.99        -0.00         4.63        1.050       15.301
   Horizontal (U&V)         0.25         7.08        13.81        1.868       26.387
   Total                    0.78         7.17        13.89        1.824       25.441

                       Min Reynolds     Mean Reynolds    Max Reynolds    Correlation
   Product             Stress (m/s)^2   Stress (m/s)^2   Stress (m/s)^2  Coefficient
   ----------------    --------------   --------------   --------------  -----------
   u'w'                    -17.340             0.290            16.015         0.143
   u'v'                    -17.397             0.086            21.088         0.027
   v'w'                    -12.579            -0.057             9.125        -0.033


   Friction Velocity (Ustar)  =      0.538 m/s
   Maximum Instantaneous TKE  =     29.852 (m/s)^2
   Maximum Instantaneous CTKE =     10.926 (m/s)^2


Grid Point Variance Summary:

   Y-coord  -28.00  -24.00  -20.00  -16.00  -12.00   -8.00   -4.00    0.00    4.00    8.00   12.00   16.00   20.00   24.00   28.00

   Height   Standard deviation at grid points for the u component:
    88.00    1.967   1.890   1.897   2.010   2.051   2.112   2.192   2.183   2.174   2.107   2.089   2.094   2.247   2.173   2.218
    84.00    1.837   1.839   1.971   1.946   2.073   2.128   2.221   2.307   2.151   2.120   1.934   1.974   2.035   2.005   2.086
    80.00    1.741   1.935   2.049   2.072   2.150   1.982   2.095   2.076   2.009   2.077   2.055   2.002   2.056   2.074   2.106
    76.00    1.710   1.936   2.098   2.011   2.154   2.114   2.014   2.071   2.067   2.099   2.180   1.953   2.007   2.060   2.090
    72.00    1.901   1.890   1.866   1.826   2.016   1.910   2.073   2.022   1.993   1.946   1.975   1.882   1.941   1.959   2.201
    68.00    2.025   2.071   1.957   1.944   1.990   2.006   1.964   1.868   1.987   2.155   1.917   1.942   2.031   2.124   2.320
    64.00    1.952   1.904   1.908   1.860   1.852   1.868   1.889   1.888   2.131   2.249   1.996   1.942   1.940   2.053   2.254
    60.00    1.954   1.737   1.850   1.889   1.763   1.786   1.887   1.927   2.125   2.232   2.037   1.882   2.009   2.076   2.092
    56.00    1.930   1.834   1.968   2.000   1.808   1.786   1.999   2.026   2.134   2.094   2.008   2.075   2.091   2.075   2.060
    52.00    1.916   1.921   1.854   1.870   1.910   1.805   1.907   1.957   2.183   2.117   2.046   2.129   2.129   2.252   2.197
    48.00    1.789   1.837   1.906   1.849   2.000   1.883   1.956   2.065   2.125   2.258   2.246   2.324   2.205   2.163   2.170
    44.00    1.961   1.901   1.880   1.872   1.910   1.758   1.991   1.976   2.073   2.183   2.290   2.364   2.147   1.937   1.985
    40.00    2.203   1.994   1.937   1.746   1.751   1.866   1.866   1.928   1.968   2.285   2.238   2.140   2.154   2.086   2.160
    36.00    2.154   2.040   1.989   1.941   1.676   1.785   1.964   2.085   2.168   2.175   2.248   2.008   2.166   2.169   2.196
    32.00    2.101   2.033   2.012   1.893   1.936   1.876   1.926   1.964   2.173   2.220   2.050   2.173   2.121   2.230   2.218

   Height   Standard deviation at grid points for the v component:
    88.00    1.680   1.680   1.680   1.680   1.680   1.680   1.680   1.680   1.680   1.680   1.680   1.680   1.680   1.680   1.680
    84.00    1.680   1.680   1.680   1.680   1.680   1.680   1.680   1.680   1.680   1.680   1.680   1.680   1.680   1.680   1.680
    80.00    1.680   1.680   1.680   1.680   1.680   1.680   1.680   1.680   1.680   1.680   1.680   1.680   1.680   1.680   1.680
    76.00    1.680   1.680   1.680   1.680   1.680   1.680   1.680   1.680   1.680   1.680   1.680   1.680   1.680   1.680   1.680
    72.00    1.680   1.680   1.680   1.680   1.680   1.680   1.680   1.680   1.680   1.680   1.680   1.680   1.680   1.680   1.680
    68.00    1.680   1.680   1.680   1.680   1.680   1.680   1.680   1.680   1.680   1.680   1.680   1.680   1.680   1.680   1.680
    64.00    1.680   1.680   1.680   1.680   1.680   1.680   1.680   1.680   1.680   1.680   1.680   1.680   1.680   1.680   1.680
    60.00    1.680   1.680   1.680   1.680   1.680   1.680   1.680   1.680   1.680   1.680   1.680   1.680   1.680   1.680   1.680
    56.00    1.680   1.680   1.680   1.680   1.680   1.680   1.680   1.680   1.680   1.680   1.680   1.680   1.680   1.680   1.680
    52.00    1.680   1.680   1.680   1.680   1.680   1.680   1.680   1.680   1.680   1.680   1.680   1.680   1.680   1.680   1.680
    48.00    1.680   1.680   1.680   1.680   1.680   1.680   1.680   1.680   1.680   1.680   1.680   1.680   1.680   1.680   1.680
    44.00    1.680   1.680   1.680   1.680   1.680   1.680   1.680   1.680   1.680   1.680   1.680   1.680   1.680   1.680   1.680
    40.00    1.680   1.680   1.680   1.680   1.680   1.680   1.680   1.680   1.680   1.680   1.680   1.680   1.680   1.680   1.680
    36.00    1.680   1.680   1.680   1.680   1.680   1.680   1.680   1.680   1.680   1.680   1.680   1.680   1.680   1.680   1.680
    32.00    1.680   1.680   1.680   1.680   1.680   1.680   1.680   1.680   1.680   1.680   1.680   1.680   1.680   1.680   1.680

   Height   Standard deviation at grid points for the w component:
    88.00    1.050   1.050   1.050   1.050   1.050   1.050   1.050   1.050   1.050   1.050   1.050   1.050   1.050   1.050   1.050
    84.00    1.050   1.050   1.050   1.050   1.050   1.050   1.050   1.050   1.050   1.050   1.050   1.050   1.050   1.050   1.050
    80.00    1.050   1.050   1.050   1.050   1.050   1.050   1.050   1.050   1.050   1.050   1.050   1.050   1.050   1.050   1.050
    76.00    1.050   1.050   1.050   1.050   1.050   1.050   1.050   1.050   1.050   1.050   1.050   1.050   1.050   1.050   1.050
    72.00    1.050   1.050   1.050   1.050   1.050   1.050   1.050   1.050   1.050   1.050   1.050   1.050   1.050   1.050   1.050
    68.00    1.050   1.050   1.050   1.050   1.050   1.050   1.050   1.050   1.050   1.050   1.050   1.050   1.050   1.050   1.050
    64.00    1.050   1.050   1.050   1.050   1.050   1.050   1.050   1.050   1.050   1.050   1.050   1.050   1.050   1.050   1.050
    60.00    1.050   1.050   1.050   1.050   1.050   1.050   1.050   1.050   1.050   1.050   1.050   1.050   1.050   1.050   1.050
    56.00    1.050   1.050   1.050   1.050   1.050   1.050   1.050   1.050   1.050   1.050   1.050   1.050   1.050   1.050   1.050
    52.00    1.050   1.050   1.050   1.050   1.050   1.050   1.050   1.050   1.050   1.050   1.050   1.050   1.050   1.050   1.050
    48.00    1.050   1.050   1.050   1.050   1.050   1.050   1.050   1.050   1.050   1.050   1.050   1.050   1.050   1.050   1.050
    44.00    1.050   1.050   1.050   1.050   1.050   1.050   1.050   1.050   1.050   1.050   1.050   1.050   1.050   1.050   1.050
    40.00    1.050   1.050   1.050   1.050   1.050   1.050   1.050   1.050   1.050   1.050   1.050   1.050   1.050   1.050   1.050
    36.00    1.050   1.050   1.050   1.050   1.050   1.050   1.050   1.050   1.050   1.050   1.050   1.050   1.050   1.050   1.050
    32.00    1.050   1.050   1.050   1.050   1.050   1.050   1.050   1.050   1.050   1.050   1.050   1.050   1.050   1.050   1.050

   Mean standard deviation across all grid points:
      u component:    2.021 m/s
      v component:    1.680 m/s
      w component:    1.050 m/s


U-component (X) statistics from the interpolated hub point:

   Mean =   6.8619 m/s
   TI   =  28.0821 %


Processing complete.  7.4256 CPU seconds used.
