
This summary file was generated by TurbSim (v2.00.01a-bjj, 14-Oct-2014) on 17-Jan-2016 at 17:29:30.


Runtime Options:

 745114648  Random seed #1
-154794614  Random seed #2
         F  Output binary HH turbulence parameters?
         F  Output formatted turbulence parameters?
         F  Output AeroDyn HH files?
         T  Output AeroDyn FF files?
         F  Output BLADED FF files?
         F  Output tower data?
         F  Output formatted FF files?
         F  Output coherent turbulence time step file?
         T  Clockwise rotation when looking downwind?
 0 -  NONE  IEC turbulence models scaled to exact specified standard deviation


Turbine/Model Specifications:

        15  Vertical grid-point matrix dimension
        15  Horizontal grid-point matrix dimension
     0.050  Time step [seconds]
   630.000  Analysis time [seconds]
   630.000  Usable output time [seconds]
    60.000  Hub height [m]
    56.000  Grid height [m]
    56.000  Grid width [m]
     0.000  Vertical flow angle [degrees]
     0.000  Horizontal flow angle [degrees]


Meteorological Boundary Conditions:

    USRINP  Uniform user-input spectral model
       N/A  IEC standard
       N/A  IEC turbulence characteristic
       N/A  IEC turbulence type
       N/A  IEC Extreme Turbulence Model (ETM) "c" parameter [m/s]
       PL   Wind profile type
   100.000  Reference height [m]
    18.400  Reference wind speed [m/s]
       N/A  Jet height [m]
     0.200  Power law exponent
     0.030  Surface roughness length [m]


Non-IEC Meteorological Boundary Conditions:

    45.000  Site latitude [degrees]
     0.050  Gradient Richardson number
     0.872  Friction or shear velocity [m/s]
       N/A  Mixing layer depth [m]
       N/A  Mean hub u'w' Reynolds stress
       N/A  Mean hub u'v' Reynolds stress
       N/A  Mean hub v'w' Reynolds stress


Spatial Coherence Models:

       IEC  u-component coherence model
      NONE  v-component coherence model
      NONE  w-component coherence model
(   12.000, 0.353E-03)  u-component coherence parameters
                   N/A  v-component coherence parameters
                   N/A  w-component coherence parameters
       N/A  Coherence exponent


You have requested that the following file(s) be generated:

   WP0.75A08V00\WP0.75A08V00_4.bts (AeroDyn/TurbSim full-field wind file)


Turbulence Simulation Scaling Parameter Summary:

   Turbulence model used                            =  Uniform user-input
   Gradient Richardson number                       =    0.050
   Monin-Obukhov (M-O) z/L parameter                =    0.067
   Monin-Obukhov (M-O) length scale                 =  900.000 m
   Mean wind speed at hub height                    =   16.613 m/s

   Wind profile type                                =  Power law
   Power law exponent                               =    0.200
   Mean shear across rotor disk                     =    0.059 (m/s)/m
   Assumed rotor diameter                           =   56.000 m
   Surface roughness length                         =    0.030 m

   Nyquist frequency of turbulent wind field        =   10.000 Hz

   Number of time steps in the FFT                  =    12600
   Number of time steps output                      =    12600
   Number of points simulated                       =      225


Mean Flow Angles:

   Vertical   =   0.0 degrees
   Horizontal =   0.0 degrees

Mean Wind Speed Profile:

   Height    Wind Speed   Horizontal Angle  Vertical Angle  U-comp (X)   V-comp (Y)   W-comp (Z)
     (m)        (m/s)         (degrees)       (degrees)       (m/s)        (m/s)        (m/s)   
   ------    ----------   ----------------  --------------  ----------   ----------   ----------
     88.0       17.94            0.00            0.00         17.94         0.00         0.00
     84.0       17.77            0.00            0.00         17.77         0.00         0.00
     80.0       17.60            0.00            0.00         17.60         0.00         0.00
     76.0       17.42            0.00            0.00         17.42         0.00         0.00
     72.0       17.23            0.00            0.00         17.23         0.00         0.00
     68.0       17.03            0.00            0.00         17.03         0.00         0.00
     64.0       16.83            0.00            0.00         16.83         0.00         0.00
     60.0       16.61            0.00            0.00         16.61         0.00         0.00
     56.0       16.39            0.00            0.00         16.39         0.00         0.00
     52.0       16.14            0.00            0.00         16.14         0.00         0.00
     48.0       15.89            0.00            0.00         15.89         0.00         0.00
     44.0       15.61            0.00            0.00         15.61         0.00         0.00
     40.0       15.32            0.00            0.00         15.32         0.00         0.00
     36.0       15.00            0.00            0.00         15.00         0.00         0.00
     32.0       14.65            0.00            0.00         14.65         0.00         0.00


Harvested Random Seeds after Generation of the Random Numbers:

   1386057037 Harvested seed # 1
    311436520 Harvested seed # 2


Hub-Height Simulated Turbulence Statistical Summary:

   Type of Wind        Min (m/s)   Mean (m/s)    Max (m/s)  Sigma (m/s)       TI (%)
   ----------------    ---------   ----------    ---------  -----------       ------
   Longitudinal (u)         9.56        16.61        22.07        1.987       11.963
   Lateral (v)             -5.06         0.00         5.50        1.680       10.112
   Vertical (w)            -3.50        -0.00         3.75        1.050        6.320
   U component              9.56        16.61        22.07        1.987       11.963
   V component             -5.06         0.00         5.50        1.680       10.112
   W component             -3.50        -0.00         3.75        1.050        6.320
   Horizontal (U&V)         9.83        16.70        22.08        1.977       11.839
   Total                    9.83        16.73        22.10        1.971       11.781

                       Min Reynolds     Mean Reynolds    Max Reynolds    Correlation
   Product             Stress (m/s)^2   Stress (m/s)^2   Stress (m/s)^2  Coefficient
   ----------------    --------------   --------------   --------------  -----------
   u'w'                    -15.240            -0.068            10.829        -0.033
   u'v'                    -18.744            -0.246            21.476        -0.074
   v'w'                    -13.212             0.013            11.433         0.007


   Friction Velocity (Ustar)  =      0.261 m/s
   Maximum Instantaneous TKE  =     27.737 (m/s)^2
   Maximum Instantaneous CTKE =     11.113 (m/s)^2


Grid Point Variance Summary:

   Y-coord  -28.00  -24.00  -20.00  -16.00  -12.00   -8.00   -4.00    0.00    4.00    8.00   12.00   16.00   20.00   24.00   28.00

   Height   Standard deviation at grid points for the u component:
    88.00    2.060   2.085   2.071   2.088   2.025   2.048   2.007   2.033   2.098   2.088   2.120   2.099   2.207   2.218   2.195
    84.00    2.096   2.065   2.050   2.094   2.072   2.049   2.092   2.102   2.038   2.118   2.042   2.104   2.141   2.110   2.115
    80.00    2.074   2.183   2.115   2.118   2.054   1.960   2.105   2.067   1.923   2.061   2.075   2.054   2.105   2.120   2.121
    76.00    2.041   2.201   2.149   2.082   2.052   2.028   2.008   2.067   2.076   2.085   2.205   2.065   2.037   2.089   2.079
    72.00    2.124   2.124   2.096   1.965   2.034   1.950   1.986   1.993   2.019   2.047   2.094   2.021   2.021   2.069   2.234
    68.00    2.072   2.084   2.082   2.068   2.083   2.001   1.994   1.927   2.055   2.152   2.061   2.097   2.083   2.155   2.287
    64.00    2.110   2.097   2.055   2.062   2.017   2.039   2.024   2.008   2.095   2.164   2.156   2.115   2.092   2.205   2.256
    60.00    2.084   1.992   2.066   2.086   2.041   2.052   1.998   1.987   2.125   2.178   2.181   2.052   2.178   2.240   2.246
    56.00    2.055   2.025   2.160   2.209   2.075   2.046   2.057   2.066   2.143   2.119   2.108   2.166   2.223   2.287   2.220
    52.00    2.057   2.071   2.055   2.177   2.156   2.130   2.082   2.109   2.126   2.133   2.116   2.204   2.236   2.332   2.183
    48.00    2.064   2.079   2.133   2.156   2.142   2.137   2.084   2.159   2.241   2.223   2.178   2.222   2.210   2.203   2.151
    44.00    2.083   2.062   2.087   2.041   2.065   2.105   2.077   2.130   2.234   2.164   2.215   2.236   2.159   2.022   2.097
    40.00    2.152   2.096   2.068   1.975   2.052   2.116   2.108   2.140   2.049   2.169   2.186   2.122   2.140   2.144   2.133
    36.00    2.117   2.054   2.126   2.143   2.088   2.077   2.160   2.143   2.145   2.149   2.211   2.120   2.137   2.184   2.183
    32.00    2.100   2.062   2.079   2.121   2.121   2.161   2.184   2.190   2.193   2.236   2.143   2.189   2.159   2.232   2.215

   Height   Standard deviation at grid points for the v component:
    88.00    1.680   1.680   1.680   1.680   1.680   1.680   1.680   1.680   1.680   1.680   1.680   1.680   1.680   1.680   1.680
    84.00    1.680   1.680   1.680   1.680   1.680   1.680   1.680   1.680   1.680   1.680   1.680   1.680   1.680   1.680   1.680
    80.00    1.680   1.680   1.680   1.680   1.680   1.680   1.680   1.680   1.680   1.680   1.680   1.680   1.680   1.680   1.680
    76.00    1.680   1.680   1.680   1.680   1.680   1.680   1.680   1.680   1.680   1.680   1.680   1.680   1.680   1.680   1.680
    72.00    1.680   1.680   1.680   1.680   1.680   1.680   1.680   1.680   1.680   1.680   1.680   1.680   1.680   1.680   1.680
    68.00    1.680   1.680   1.680   1.680   1.680   1.680   1.680   1.680   1.680   1.680   1.680   1.680   1.680   1.680   1.680
    64.00    1.680   1.680   1.680   1.680   1.680   1.680   1.680   1.680   1.680   1.680   1.680   1.680   1.680   1.680   1.680
    60.00    1.680   1.680   1.680   1.680   1.680   1.680   1.680   1.680   1.680   1.680   1.680   1.680   1.680   1.680   1.680
    56.00    1.680   1.680   1.680   1.680   1.680   1.680   1.680   1.680   1.680   1.680   1.680   1.680   1.680   1.680   1.680
    52.00    1.680   1.680   1.680   1.680   1.680   1.680   1.680   1.680   1.680   1.680   1.680   1.680   1.680   1.680   1.680
    48.00    1.680   1.680   1.680   1.680   1.680   1.680   1.680   1.680   1.680   1.680   1.680   1.680   1.680   1.680   1.680
    44.00    1.680   1.680   1.680   1.680   1.680   1.680   1.680   1.680   1.680   1.680   1.680   1.680   1.680   1.680   1.680
    40.00    1.680   1.680   1.680   1.680   1.680   1.680   1.680   1.680   1.680   1.680   1.680   1.680   1.680   1.680   1.680
    36.00    1.680   1.680   1.680   1.680   1.680   1.680   1.680   1.680   1.680   1.680   1.680   1.680   1.680   1.680   1.680
    32.00    1.680   1.680   1.680   1.680   1.680   1.680   1.680   1.680   1.680   1.680   1.680   1.680   1.680   1.680   1.680

   Height   Standard deviation at grid points for the w component:
    88.00    1.050   1.050   1.050   1.050   1.050   1.050   1.050   1.050   1.050   1.050   1.050   1.050   1.050   1.050   1.050
    84.00    1.050   1.050   1.050   1.050   1.050   1.050   1.050   1.050   1.050   1.050   1.050   1.050   1.050   1.050   1.050
    80.00    1.050   1.050   1.050   1.050   1.050   1.050   1.050   1.050   1.050   1.050   1.050   1.050   1.050   1.050   1.050
    76.00    1.050   1.050   1.050   1.050   1.050   1.050   1.050   1.050   1.050   1.050   1.050   1.050   1.050   1.050   1.050
    72.00    1.050   1.050   1.050   1.050   1.050   1.050   1.050   1.050   1.050   1.050   1.050   1.050   1.050   1.050   1.050
    68.00    1.050   1.050   1.050   1.050   1.050   1.050   1.050   1.050   1.050   1.050   1.050   1.050   1.050   1.050   1.050
    64.00    1.050   1.050   1.050   1.050   1.050   1.050   1.050   1.050   1.050   1.050   1.050   1.050   1.050   1.050   1.050
    60.00    1.050   1.050   1.050   1.050   1.050   1.050   1.050   1.050   1.050   1.050   1.050   1.050   1.050   1.050   1.050
    56.00    1.050   1.050   1.050   1.050   1.050   1.050   1.050   1.050   1.050   1.050   1.050   1.050   1.050   1.050   1.050
    52.00    1.050   1.050   1.050   1.050   1.050   1.050   1.050   1.050   1.050   1.050   1.050   1.050   1.050   1.050   1.050
    48.00    1.050   1.050   1.050   1.050   1.050   1.050   1.050   1.050   1.050   1.050   1.050   1.050   1.050   1.050   1.050
    44.00    1.050   1.050   1.050   1.050   1.050   1.050   1.050   1.050   1.050   1.050   1.050   1.050   1.050   1.050   1.050
    40.00    1.050   1.050   1.050   1.050   1.050   1.050   1.050   1.050   1.050   1.050   1.050   1.050   1.050   1.050   1.050
    36.00    1.050   1.050   1.050   1.050   1.050   1.050   1.050   1.050   1.050   1.050   1.050   1.050   1.050   1.050   1.050
    32.00    1.050   1.050   1.050   1.050   1.050   1.050   1.050   1.050   1.050   1.050   1.050   1.050   1.050   1.050   1.050

   Mean standard deviation across all grid points:
      u component:    2.109 m/s
      v component:    1.680 m/s
      w component:    1.050 m/s


U-component (X) statistics from the interpolated hub point:

   Mean =  16.6130 m/s
   TI   =  11.9632 %


Processing complete.  7.3164 CPU seconds used.
