
This summary file was generated by TurbSim (v2.00.01a-bjj, 14-Oct-2014) on 17-Jan-2016 at 17:22:20.


Runtime Options:

 745114648  Random seed #1
-154794614  Random seed #2
         F  Output binary HH turbulence parameters?
         F  Output formatted turbulence parameters?
         F  Output AeroDyn HH files?
         T  Output AeroDyn FF files?
         F  Output BLADED FF files?
         F  Output tower data?
         F  Output formatted FF files?
         F  Output coherent turbulence time step file?
         T  Clockwise rotation when looking downwind?
 0 -  NONE  IEC turbulence models scaled to exact specified standard deviation


Turbine/Model Specifications:

        15  Vertical grid-point matrix dimension
        15  Horizontal grid-point matrix dimension
     0.050  Time step [seconds]
   630.000  Analysis time [seconds]
   630.000  Usable output time [seconds]
    60.000  Hub height [m]
    56.000  Grid height [m]
    56.000  Grid width [m]
     0.000  Vertical flow angle [degrees]
     0.000  Horizontal flow angle [degrees]


Meteorological Boundary Conditions:

    USRINP  Uniform user-input spectral model
       N/A  IEC standard
       N/A  IEC turbulence characteristic
       N/A  IEC turbulence type
       N/A  IEC Extreme Turbulence Model (ETM) "c" parameter [m/s]
       PL   Wind profile type
   100.000  Reference height [m]
     7.600  Reference wind speed [m/s]
       N/A  Jet height [m]
     0.200  Power law exponent
     0.030  Surface roughness length [m]


Non-IEC Meteorological Boundary Conditions:

    45.000  Site latitude [degrees]
     0.050  Gradient Richardson number
     0.360  Friction or shear velocity [m/s]
       N/A  Mixing layer depth [m]
       N/A  Mean hub u'w' Reynolds stress
       N/A  Mean hub u'v' Reynolds stress
       N/A  Mean hub v'w' Reynolds stress


Spatial Coherence Models:

       IEC  u-component coherence model
      NONE  v-component coherence model
      NONE  w-component coherence model
(   12.000, 0.353E-03)  u-component coherence parameters
                   N/A  v-component coherence parameters
                   N/A  w-component coherence parameters
       N/A  Coherence exponent


You have requested that the following file(s) be generated:

   WP0.75A08V00\WP0.75A08V00_0.bts (AeroDyn/TurbSim full-field wind file)


Turbulence Simulation Scaling Parameter Summary:

   Turbulence model used                            =  Uniform user-input
   Gradient Richardson number                       =    0.050
   Monin-Obukhov (M-O) z/L parameter                =    0.067
   Monin-Obukhov (M-O) length scale                 =  900.000 m
   Mean wind speed at hub height                    =    6.862 m/s

   Wind profile type                                =  Power law
   Power law exponent                               =    0.200
   Mean shear across rotor disk                     =    0.024 (m/s)/m
   Assumed rotor diameter                           =   56.000 m
   Surface roughness length                         =    0.030 m

   Nyquist frequency of turbulent wind field        =   10.000 Hz

   Number of time steps in the FFT                  =    12600
   Number of time steps output                      =    12600
   Number of points simulated                       =      225


Mean Flow Angles:

   Vertical   =   0.0 degrees
   Horizontal =   0.0 degrees

Mean Wind Speed Profile:

   Height    Wind Speed   Horizontal Angle  Vertical Angle  U-comp (X)   V-comp (Y)   W-comp (Z)
     (m)        (m/s)         (degrees)       (degrees)       (m/s)        (m/s)        (m/s)   
   ------    ----------   ----------------  --------------  ----------   ----------   ----------
     88.0        7.41            0.00            0.00          7.41         0.00         0.00
     84.0        7.34            0.00            0.00          7.34         0.00         0.00
     80.0        7.27            0.00            0.00          7.27         0.00         0.00
     76.0        7.19            0.00            0.00          7.19         0.00         0.00
     72.0        7.12            0.00            0.00          7.12         0.00         0.00
     68.0        7.04            0.00            0.00          7.04         0.00         0.00
     64.0        6.95            0.00            0.00          6.95         0.00         0.00
     60.0        6.86            0.00            0.00          6.86         0.00         0.00
     56.0        6.77            0.00            0.00          6.77         0.00         0.00
     52.0        6.67            0.00            0.00          6.67         0.00         0.00
     48.0        6.56            0.00            0.00          6.56         0.00         0.00
     44.0        6.45            0.00            0.00          6.45         0.00         0.00
     40.0        6.33            0.00            0.00          6.33         0.00         0.00
     36.0        6.20            0.00            0.00          6.20         0.00         0.00
     32.0        6.05            0.00            0.00          6.05         0.00         0.00


Harvested Random Seeds after Generation of the Random Numbers:

   1386057037 Harvested seed # 1
    311436520 Harvested seed # 2


Hub-Height Simulated Turbulence Statistical Summary:

   Type of Wind        Min (m/s)   Mean (m/s)    Max (m/s)  Sigma (m/s)       TI (%)
   ----------------    ---------   ----------    ---------  -----------       ------
   Longitudinal (u)         0.76         6.86        11.93        2.011       29.303
   Lateral (v)             -5.11         0.00         5.01        1.680       24.484
   Vertical (w)            -3.30        -0.00         3.42        1.050       15.301
   U component              0.76         6.86        11.93        2.011       29.303
   V component             -5.11         0.00         5.01        1.680       24.484
   W component             -3.30        -0.00         3.42        1.050       15.301
   Horizontal (U&V)         1.31         7.08        12.20        1.973       27.885
   Total                    1.39         7.16        12.21        1.942       27.126

                       Min Reynolds     Mean Reynolds    Max Reynolds    Correlation
   Product             Stress (m/s)^2   Stress (m/s)^2   Stress (m/s)^2  Coefficient
   ----------------    --------------   --------------   --------------  -----------
   u'w'                    -15.875             0.046            15.007         0.022
   u'v'                    -20.959            -0.137            17.671        -0.040
   v'w'                    -10.343             0.088            10.290         0.050


   Friction Velocity (Ustar)  =      0.214 m/s
   Maximum Instantaneous TKE  =     21.094 (m/s)^2
   Maximum Instantaneous CTKE =     10.488 (m/s)^2


Grid Point Variance Summary:

   Y-coord  -28.00  -24.00  -20.00  -16.00  -12.00   -8.00   -4.00    0.00    4.00    8.00   12.00   16.00   20.00   24.00   28.00

   Height   Standard deviation at grid points for the u component:
    88.00    1.905   1.802   1.804   1.737   1.781   1.911   1.919   2.035   2.157   2.151   2.150   2.073   2.250   2.324   2.337
    84.00    1.958   1.886   1.744   1.809   1.770   1.850   1.995   2.052   1.981   2.106   2.012   2.123   2.216   2.145   2.260
    80.00    1.923   1.971   1.938   1.826   1.795   1.738   1.980   1.903   1.817   2.048   2.053   2.065   2.147   2.221   2.226
    76.00    1.977   2.076   1.976   1.892   1.813   1.861   1.917   1.925   1.953   2.049   2.206   2.049   2.118   2.243   2.179
    72.00    2.032   1.943   1.948   1.734   1.773   1.769   1.823   1.825   1.971   1.965   2.079   1.964   2.057   2.153   2.388
    68.00    1.998   2.011   1.944   1.881   1.924   1.918   1.874   1.806   1.943   2.144   2.045   2.053   2.157   2.166   2.416
    64.00    2.036   2.021   1.904   1.953   1.964   2.025   1.973   1.985   2.041   2.174   2.124   2.070   2.079   2.210   2.342
    60.00    2.029   1.943   1.983   2.061   1.989   2.057   2.001   2.011   2.098   2.199   2.110   2.021   2.230   2.379   2.467
    56.00    2.077   2.044   2.193   2.181   2.052   2.055   2.040   2.109   2.143   2.097   2.054   2.211   2.298   2.403   2.401
    52.00    2.175   2.096   2.020   2.169   2.078   2.124   1.963   2.080   2.070   2.153   2.082   2.290   2.281   2.486   2.306
    48.00    2.095   2.042   2.164   2.175   2.107   2.137   1.914   2.036   2.176   2.244   2.148   2.307   2.334   2.356   2.323
    44.00    2.099   2.039   2.081   2.016   2.020   2.101   1.969   2.016   2.202   2.190   2.274   2.278   2.278   2.130   2.195
    40.00    2.233   2.121   2.180   2.050   2.076   2.037   2.001   2.094   1.995   2.201   2.191   2.112   2.243   2.327   2.303
    36.00    2.142   2.063   2.232   2.317   2.155   2.031   2.137   2.182   2.191   2.192   2.262   2.185   2.241   2.319   2.296
    32.00    2.101   2.086   2.195   2.283   2.210   2.205   2.209   2.208   2.295   2.299   2.103   2.216   2.195   2.253   2.277

   Height   Standard deviation at grid points for the v component:
    88.00    1.680   1.680   1.680   1.680   1.680   1.680   1.680   1.680   1.680   1.680   1.680   1.680   1.680   1.680   1.680
    84.00    1.680   1.680   1.680   1.680   1.680   1.680   1.680   1.680   1.680   1.680   1.680   1.680   1.680   1.680   1.680
    80.00    1.680   1.680   1.680   1.680   1.680   1.680   1.680   1.680   1.680   1.680   1.680   1.680   1.680   1.680   1.680
    76.00    1.680   1.680   1.680   1.680   1.680   1.680   1.680   1.680   1.680   1.680   1.680   1.680   1.680   1.680   1.680
    72.00    1.680   1.680   1.680   1.680   1.680   1.680   1.680   1.680   1.680   1.680   1.680   1.680   1.680   1.680   1.680
    68.00    1.680   1.680   1.680   1.680   1.680   1.680   1.680   1.680   1.680   1.680   1.680   1.680   1.680   1.680   1.680
    64.00    1.680   1.680   1.680   1.680   1.680   1.680   1.680   1.680   1.680   1.680   1.680   1.680   1.680   1.680   1.680
    60.00    1.680   1.680   1.680   1.680   1.680   1.680   1.680   1.680   1.680   1.680   1.680   1.680   1.680   1.680   1.680
    56.00    1.680   1.680   1.680   1.680   1.680   1.680   1.680   1.680   1.680   1.680   1.680   1.680   1.680   1.680   1.680
    52.00    1.680   1.680   1.680   1.680   1.680   1.680   1.680   1.680   1.680   1.680   1.680   1.680   1.680   1.680   1.680
    48.00    1.680   1.680   1.680   1.680   1.680   1.680   1.680   1.680   1.680   1.680   1.680   1.680   1.680   1.680   1.680
    44.00    1.680   1.680   1.680   1.680   1.680   1.680   1.680   1.680   1.680   1.680   1.680   1.680   1.680   1.680   1.680
    40.00    1.680   1.680   1.680   1.680   1.680   1.680   1.680   1.680   1.680   1.680   1.680   1.680   1.680   1.680   1.680
    36.00    1.680   1.680   1.680   1.680   1.680   1.680   1.680   1.680   1.680   1.680   1.680   1.680   1.680   1.680   1.680
    32.00    1.680   1.680   1.680   1.680   1.680   1.680   1.680   1.680   1.680   1.680   1.680   1.680   1.680   1.680   1.680

   Height   Standard deviation at grid points for the w component:
    88.00    1.050   1.050   1.050   1.050   1.050   1.050   1.050   1.050   1.050   1.050   1.050   1.050   1.050   1.050   1.050
    84.00    1.050   1.050   1.050   1.050   1.050   1.050   1.050   1.050   1.050   1.050   1.050   1.050   1.050   1.050   1.050
    80.00    1.050   1.050   1.050   1.050   1.050   1.050   1.050   1.050   1.050   1.050   1.050   1.050   1.050   1.050   1.050
    76.00    1.050   1.050   1.050   1.050   1.050   1.050   1.050   1.050   1.050   1.050   1.050   1.050   1.050   1.050   1.050
    72.00    1.050   1.050   1.050   1.050   1.050   1.050   1.050   1.050   1.050   1.050   1.050   1.050   1.050   1.050   1.050
    68.00    1.050   1.050   1.050   1.050   1.050   1.050   1.050   1.050   1.050   1.050   1.050   1.050   1.050   1.050   1.050
    64.00    1.050   1.050   1.050   1.050   1.050   1.050   1.050   1.050   1.050   1.050   1.050   1.050   1.050   1.050   1.050
    60.00    1.050   1.050   1.050   1.050   1.050   1.050   1.050   1.050   1.050   1.050   1.050   1.050   1.050   1.050   1.050
    56.00    1.050   1.050   1.050   1.050   1.050   1.050   1.050   1.050   1.050   1.050   1.050   1.050   1.050   1.050   1.050
    52.00    1.050   1.050   1.050   1.050   1.050   1.050   1.050   1.050   1.050   1.050   1.050   1.050   1.050   1.050   1.050
    48.00    1.050   1.050   1.050   1.050   1.050   1.050   1.050   1.050   1.050   1.050   1.050   1.050   1.050   1.050   1.050
    44.00    1.050   1.050   1.050   1.050   1.050   1.050   1.050   1.050   1.050   1.050   1.050   1.050   1.050   1.050   1.050
    40.00    1.050   1.050   1.050   1.050   1.050   1.050   1.050   1.050   1.050   1.050   1.050   1.050   1.050   1.050   1.050
    36.00    1.050   1.050   1.050   1.050   1.050   1.050   1.050   1.050   1.050   1.050   1.050   1.050   1.050   1.050   1.050
    32.00    1.050   1.050   1.050   1.050   1.050   1.050   1.050   1.050   1.050   1.050   1.050   1.050   1.050   1.050   1.050

   Mean standard deviation across all grid points:
      u component:    2.088 m/s
      v component:    1.680 m/s
      w component:    1.050 m/s


U-component (X) statistics from the interpolated hub point:

   Mean =   6.8619 m/s
   TI   =  29.3027 %


Processing complete.  7.2852 CPU seconds used.
