
This summary file was generated by TurbSim (v2.00.01a-bjj, 14-Oct-2014) on 14-Jan-2016 at 10:29:36.


Runtime Options:

 338713836  Random seed #1
**********  Random seed #2
         F  Output binary HH turbulence parameters?
         F  Output formatted turbulence parameters?
         F  Output AeroDyn HH files?
         T  Output AeroDyn FF files?
         F  Output BLADED FF files?
         F  Output tower data?
         F  Output formatted FF files?
         F  Output coherent turbulence time step file?
         T  Clockwise rotation when looking downwind?
 0 -  NONE  IEC turbulence models scaled to exact specified standard deviation


Turbine/Model Specifications:

        15  Vertical grid-point matrix dimension
        15  Horizontal grid-point matrix dimension
     0.050  Time step [seconds]
   630.000  Analysis time [seconds]
   630.000  Usable output time [seconds]
    60.000  Hub height [m]
    56.000  Grid height [m]
    56.000  Grid width [m]
     0.000  Vertical flow angle [degrees]
     0.000  Horizontal flow angle [degrees]


Meteorological Boundary Conditions:

    USRINP  Uniform user-input spectral model
       N/A  IEC standard
       N/A  IEC turbulence characteristic
       N/A  IEC turbulence type
       N/A  IEC Extreme Turbulence Model (ETM) "c" parameter [m/s]
       PL   Wind profile type
   100.000  Reference height [m]
    16.300  Reference wind speed [m/s]
       N/A  Jet height [m]
     0.200  Power law exponent
     0.030  Surface roughness length [m]


Non-IEC Meteorological Boundary Conditions:

    45.000  Site latitude [degrees]
     0.050  Gradient Richardson number
     0.772  Friction or shear velocity [m/s]
       N/A  Mixing layer depth [m]
       N/A  Mean hub u'w' Reynolds stress
       N/A  Mean hub u'v' Reynolds stress
       N/A  Mean hub v'w' Reynolds stress


Spatial Coherence Models:

       IEC  u-component coherence model
      NONE  v-component coherence model
      NONE  w-component coherence model
(   12.000, 0.353E-03)  u-component coherence parameters
                   N/A  v-component coherence parameters
                   N/A  w-component coherence parameters
       N/A  Coherence exponent


You have requested that the following file(s) be generated:

   WP0.75A08V00\WP0.75A08V00_2.bts (AeroDyn/TurbSim full-field wind file)


Turbulence Simulation Scaling Parameter Summary:

   Turbulence model used                            =  Uniform user-input
   Gradient Richardson number                       =    0.050
   Monin-Obukhov (M-O) z/L parameter                =    0.067
   Monin-Obukhov (M-O) length scale                 =  900.000 m
   Mean wind speed at hub height                    =   14.717 m/s

   Wind profile type                                =  Power law
   Power law exponent                               =    0.200
   Mean shear across rotor disk                     =    0.052 (m/s)/m
   Assumed rotor diameter                           =   56.000 m
   Surface roughness length                         =    0.030 m

   Nyquist frequency of turbulent wind field        =   10.000 Hz

   Number of time steps in the FFT                  =    12600
   Number of time steps output                      =    12600
   Number of points simulated                       =      225


Mean Flow Angles:

   Vertical   =   0.0 degrees
   Horizontal =   0.0 degrees

Mean Wind Speed Profile:

   Height    Wind Speed   Horizontal Angle  Vertical Angle  U-comp (X)   V-comp (Y)   W-comp (Z)
     (m)        (m/s)         (degrees)       (degrees)       (m/s)        (m/s)        (m/s)   
   ------    ----------   ----------------  --------------  ----------   ----------   ----------
     88.0       15.89            0.00            0.00         15.89         0.00         0.00
     84.0       15.74            0.00            0.00         15.74         0.00         0.00
     80.0       15.59            0.00            0.00         15.59         0.00         0.00
     76.0       15.43            0.00            0.00         15.43         0.00         0.00
     72.0       15.26            0.00            0.00         15.26         0.00         0.00
     68.0       15.09            0.00            0.00         15.09         0.00         0.00
     64.0       14.91            0.00            0.00         14.91         0.00         0.00
     60.0       14.72            0.00            0.00         14.72         0.00         0.00
     56.0       14.52            0.00            0.00         14.52         0.00         0.00
     52.0       14.30            0.00            0.00         14.30         0.00         0.00
     48.0       14.07            0.00            0.00         14.07         0.00         0.00
     44.0       13.83            0.00            0.00         13.83         0.00         0.00
     40.0       13.57            0.00            0.00         13.57         0.00         0.00
     36.0       13.29            0.00            0.00         13.29         0.00         0.00
     32.0       12.98            0.00            0.00         12.98         0.00         0.00


Harvested Random Seeds after Generation of the Random Numbers:

   1791072441 Harvested seed # 1
   1885195059 Harvested seed # 2


Hub-Height Simulated Turbulence Statistical Summary:

   Type of Wind        Min (m/s)   Mean (m/s)    Max (m/s)  Sigma (m/s)       TI (%)
   ----------------    ---------   ----------    ---------  -----------       ------
   Longitudinal (u)         8.50        14.72        22.57        1.895       12.878
   Lateral (v)             -6.68         0.00         5.93        1.680       11.415
   Vertical (w)            -4.62         0.00         3.94        1.050        7.134
   U component              8.50        14.72        22.57        1.895       12.878
   V component             -6.68         0.00         5.93        1.680       11.415
   W component             -4.62         0.00         3.94        1.050        7.134
   Horizontal (U&V)         9.07        14.81        22.80        1.899       12.820
   Total                    9.08        14.85        22.81        1.895       12.762

                       Min Reynolds     Mean Reynolds    Max Reynolds    Correlation
   Product             Stress (m/s)^2   Stress (m/s)^2   Stress (m/s)^2  Coefficient
   ----------------    --------------   --------------   --------------  -----------
   u'w'                    -16.404            -0.043            16.055        -0.022
   u'v'                    -25.556             0.094            19.333         0.029
   v'w'                    -11.410             0.032            15.475         0.018


   Friction Velocity (Ustar)  =      0.208 m/s
   Maximum Instantaneous TKE  =     36.270 (m/s)^2
   Maximum Instantaneous CTKE =     12.999 (m/s)^2


Grid Point Variance Summary:

   Y-coord  -28.00  -24.00  -20.00  -16.00  -12.00   -8.00   -4.00    0.00    4.00    8.00   12.00   16.00   20.00   24.00   28.00

   Height   Standard deviation at grid points for the u component:
    88.00    1.808   1.822   1.947   2.023   2.089   2.137   2.021   1.962   1.978   2.007   2.023   1.947   2.039   2.043   2.035
    84.00    1.851   1.877   1.986   2.035   2.126   2.063   1.991   1.943   1.919   1.959   2.023   2.134   2.111   2.029   2.158
    80.00    1.787   1.877   1.926   1.980   1.963   1.986   1.936   1.951   1.974   2.040   2.035   2.150   2.110   1.999   2.107
    76.00    1.881   1.848   1.872   2.027   1.940   1.977   1.901   1.943   1.898   2.001   2.065   2.014   1.961   2.111   2.021
    72.00    1.849   1.860   1.954   2.059   2.027   1.923   1.888   1.977   1.926   1.976   1.972   2.003   2.014   2.015   2.072
    68.00    1.916   1.901   1.983   1.958   1.988   1.945   1.929   1.893   1.893   1.980   2.005   2.046   2.025   1.972   1.961
    64.00    1.834   1.912   1.993   2.005   2.002   1.931   1.921   1.892   1.887   1.874   1.924   1.901   1.946   1.887   1.915
    60.00    1.765   1.929   1.981   2.027   1.990   1.837   1.940   1.895   1.823   1.844   1.885   1.840   1.905   1.892   1.938
    56.00    1.835   1.901   1.929   1.993   1.971   1.958   1.899   1.857   1.876   1.923   1.874   1.915   1.854   1.925   1.992
    52.00    1.860   1.921   1.978   1.941   1.911   1.922   1.943   1.804   1.854   1.889   1.899   1.974   1.887   1.942   1.991
    48.00    1.829   1.860   1.896   1.900   1.979   1.965   1.909   1.832   1.823   1.920   1.960   2.004   1.942   1.978   2.043
    44.00    1.987   2.042   1.950   1.955   1.926   1.943   1.947   1.854   1.926   1.943   1.914   1.984   2.026   2.092   2.052
    40.00    2.002   1.961   1.920   1.931   1.919   1.874   1.876   1.954   1.978   1.940   1.923   1.975   2.092   2.036   2.017
    36.00    2.038   2.039   1.923   1.952   1.921   1.877   1.946   1.946   1.970   1.891   1.775   1.932   1.929   1.917   1.925
    32.00    2.100   2.087   2.065   2.044   1.974   2.012   1.951   1.865   1.966   1.903   1.904   1.905   1.857   1.858   1.856

   Height   Standard deviation at grid points for the v component:
    88.00    1.680   1.680   1.680   1.680   1.680   1.680   1.680   1.680   1.680   1.680   1.680   1.680   1.680   1.680   1.680
    84.00    1.680   1.680   1.680   1.680   1.680   1.680   1.680   1.680   1.680   1.680   1.680   1.680   1.680   1.680   1.680
    80.00    1.680   1.680   1.680   1.680   1.680   1.680   1.680   1.680   1.680   1.680   1.680   1.680   1.680   1.680   1.680
    76.00    1.680   1.680   1.680   1.680   1.680   1.680   1.680   1.680   1.680   1.680   1.680   1.680   1.680   1.680   1.680
    72.00    1.680   1.680   1.680   1.680   1.680   1.680   1.680   1.680   1.680   1.680   1.680   1.680   1.680   1.680   1.680
    68.00    1.680   1.680   1.680   1.680   1.680   1.680   1.680   1.680   1.680   1.680   1.680   1.680   1.680   1.680   1.680
    64.00    1.680   1.680   1.680   1.680   1.680   1.680   1.680   1.680   1.680   1.680   1.680   1.680   1.680   1.680   1.680
    60.00    1.680   1.680   1.680   1.680   1.680   1.680   1.680   1.680   1.680   1.680   1.680   1.680   1.680   1.680   1.680
    56.00    1.680   1.680   1.680   1.680   1.680   1.680   1.680   1.680   1.680   1.680   1.680   1.680   1.680   1.680   1.680
    52.00    1.680   1.680   1.680   1.680   1.680   1.680   1.680   1.680   1.680   1.680   1.680   1.680   1.680   1.680   1.680
    48.00    1.680   1.680   1.680   1.680   1.680   1.680   1.680   1.680   1.680   1.680   1.680   1.680   1.680   1.680   1.680
    44.00    1.680   1.680   1.680   1.680   1.680   1.680   1.680   1.680   1.680   1.680   1.680   1.680   1.680   1.680   1.680
    40.00    1.680   1.680   1.680   1.680   1.680   1.680   1.680   1.680   1.680   1.680   1.680   1.680   1.680   1.680   1.680
    36.00    1.680   1.680   1.680   1.680   1.680   1.680   1.680   1.680   1.680   1.680   1.680   1.680   1.680   1.680   1.680
    32.00    1.680   1.680   1.680   1.680   1.680   1.680   1.680   1.680   1.680   1.680   1.680   1.680   1.680   1.680   1.680

   Height   Standard deviation at grid points for the w component:
    88.00    1.050   1.050   1.050   1.050   1.050   1.050   1.050   1.050   1.050   1.050   1.050   1.050   1.050   1.050   1.050
    84.00    1.050   1.050   1.050   1.050   1.050   1.050   1.050   1.050   1.050   1.050   1.050   1.050   1.050   1.050   1.050
    80.00    1.050   1.050   1.050   1.050   1.050   1.050   1.050   1.050   1.050   1.050   1.050   1.050   1.050   1.050   1.050
    76.00    1.050   1.050   1.050   1.050   1.050   1.050   1.050   1.050   1.050   1.050   1.050   1.050   1.050   1.050   1.050
    72.00    1.050   1.050   1.050   1.050   1.050   1.050   1.050   1.050   1.050   1.050   1.050   1.050   1.050   1.050   1.050
    68.00    1.050   1.050   1.050   1.050   1.050   1.050   1.050   1.050   1.050   1.050   1.050   1.050   1.050   1.050   1.050
    64.00    1.050   1.050   1.050   1.050   1.050   1.050   1.050   1.050   1.050   1.050   1.050   1.050   1.050   1.050   1.050
    60.00    1.050   1.050   1.050   1.050   1.050   1.050   1.050   1.050   1.050   1.050   1.050   1.050   1.050   1.050   1.050
    56.00    1.050   1.050   1.050   1.050   1.050   1.050   1.050   1.050   1.050   1.050   1.050   1.050   1.050   1.050   1.050
    52.00    1.050   1.050   1.050   1.050   1.050   1.050   1.050   1.050   1.050   1.050   1.050   1.050   1.050   1.050   1.050
    48.00    1.050   1.050   1.050   1.050   1.050   1.050   1.050   1.050   1.050   1.050   1.050   1.050   1.050   1.050   1.050
    44.00    1.050   1.050   1.050   1.050   1.050   1.050   1.050   1.050   1.050   1.050   1.050   1.050   1.050   1.050   1.050
    40.00    1.050   1.050   1.050   1.050   1.050   1.050   1.050   1.050   1.050   1.050   1.050   1.050   1.050   1.050   1.050
    36.00    1.050   1.050   1.050   1.050   1.050   1.050   1.050   1.050   1.050   1.050   1.050   1.050   1.050   1.050   1.050
    32.00    1.050   1.050   1.050   1.050   1.050   1.050   1.050   1.050   1.050   1.050   1.050   1.050   1.050   1.050   1.050

   Mean standard deviation across all grid points:
      u component:    1.952 m/s
      v component:    1.680 m/s
      w component:    1.050 m/s


U-component (X) statistics from the interpolated hub point:

   Mean =  14.7170 m/s
   TI   =  12.8782 %


Processing complete.  7.5348 CPU seconds used.
