
This summary file was generated by TurbSim (v2.00.01a-bjj, 14-Oct-2014) on 17-Jan-2016 at 17:31:33.


Runtime Options:

 745114648  Random seed #1
-154794614  Random seed #2
         F  Output binary HH turbulence parameters?
         F  Output formatted turbulence parameters?
         F  Output AeroDyn HH files?
         T  Output AeroDyn FF files?
         F  Output BLADED FF files?
         F  Output tower data?
         F  Output formatted FF files?
         F  Output coherent turbulence time step file?
         T  Clockwise rotation when looking downwind?
 0 -  NONE  IEC turbulence models scaled to exact specified standard deviation


Turbine/Model Specifications:

        15  Vertical grid-point matrix dimension
        15  Horizontal grid-point matrix dimension
     0.050  Time step [seconds]
   630.000  Analysis time [seconds]
   630.000  Usable output time [seconds]
    60.000  Hub height [m]
    56.000  Grid height [m]
    56.000  Grid width [m]
     0.000  Vertical flow angle [degrees]
     0.000  Horizontal flow angle [degrees]


Meteorological Boundary Conditions:

    USRINP  Uniform user-input spectral model
       N/A  IEC standard
       N/A  IEC turbulence characteristic
       N/A  IEC turbulence type
       N/A  IEC Extreme Turbulence Model (ETM) "c" parameter [m/s]
       PL   Wind profile type
   100.000  Reference height [m]
    18.400  Reference wind speed [m/s]
       N/A  Jet height [m]
     0.200  Power law exponent
     0.030  Surface roughness length [m]


Non-IEC Meteorological Boundary Conditions:

    45.000  Site latitude [degrees]
     0.050  Gradient Richardson number
     0.872  Friction or shear velocity [m/s]
       N/A  Mixing layer depth [m]
       N/A  Mean hub u'w' Reynolds stress
       N/A  Mean hub u'v' Reynolds stress
       N/A  Mean hub v'w' Reynolds stress


Spatial Coherence Models:

       IEC  u-component coherence model
      NONE  v-component coherence model
      NONE  w-component coherence model
(   12.000, 0.353E-03)  u-component coherence parameters
                   N/A  v-component coherence parameters
                   N/A  w-component coherence parameters
       N/A  Coherence exponent


You have requested that the following file(s) be generated:

   WP0.75A08V00\WP0.75A08V00_5.bts (AeroDyn/TurbSim full-field wind file)


Turbulence Simulation Scaling Parameter Summary:

   Turbulence model used                            =  Uniform user-input
   Gradient Richardson number                       =    0.050
   Monin-Obukhov (M-O) z/L parameter                =    0.067
   Monin-Obukhov (M-O) length scale                 =  900.000 m
   Mean wind speed at hub height                    =   16.613 m/s

   Wind profile type                                =  Power law
   Power law exponent                               =    0.200
   Mean shear across rotor disk                     =    0.059 (m/s)/m
   Assumed rotor diameter                           =   56.000 m
   Surface roughness length                         =    0.030 m

   Nyquist frequency of turbulent wind field        =   10.000 Hz

   Number of time steps in the FFT                  =    12600
   Number of time steps output                      =    12600
   Number of points simulated                       =      225


Mean Flow Angles:

   Vertical   =   0.0 degrees
   Horizontal =   0.0 degrees

Mean Wind Speed Profile:

   Height    Wind Speed   Horizontal Angle  Vertical Angle  U-comp (X)   V-comp (Y)   W-comp (Z)
     (m)        (m/s)         (degrees)       (degrees)       (m/s)        (m/s)        (m/s)   
   ------    ----------   ----------------  --------------  ----------   ----------   ----------
     88.0       17.94            0.00            0.00         17.94         0.00         0.00
     84.0       17.77            0.00            0.00         17.77         0.00         0.00
     80.0       17.60            0.00            0.00         17.60         0.00         0.00
     76.0       17.42            0.00            0.00         17.42         0.00         0.00
     72.0       17.23            0.00            0.00         17.23         0.00         0.00
     68.0       17.03            0.00            0.00         17.03         0.00         0.00
     64.0       16.83            0.00            0.00         16.83         0.00         0.00
     60.0       16.61            0.00            0.00         16.61         0.00         0.00
     56.0       16.39            0.00            0.00         16.39         0.00         0.00
     52.0       16.14            0.00            0.00         16.14         0.00         0.00
     48.0       15.89            0.00            0.00         15.89         0.00         0.00
     44.0       15.61            0.00            0.00         15.61         0.00         0.00
     40.0       15.32            0.00            0.00         15.32         0.00         0.00
     36.0       15.00            0.00            0.00         15.00         0.00         0.00
     32.0       14.65            0.00            0.00         14.65         0.00         0.00


Harvested Random Seeds after Generation of the Random Numbers:

   1386057037 Harvested seed # 1
    311436520 Harvested seed # 2


Hub-Height Simulated Turbulence Statistical Summary:

   Type of Wind        Min (m/s)   Mean (m/s)    Max (m/s)  Sigma (m/s)       TI (%)
   ----------------    ---------   ----------    ---------  -----------       ------
   Longitudinal (u)         9.94        16.61        23.09        1.944       11.704
   Lateral (v)             -6.41        -0.00         6.39        1.680       10.112
   Vertical (w)            -4.54        -0.00         4.73        1.050        6.320
   U component              9.94        16.61        23.09        1.944       11.704
   V component             -6.41        -0.00         6.39        1.680       10.112
   W component             -4.54        -0.00         4.73        1.050        6.320
   Horizontal (U&V)        10.09        16.70        23.09        1.931       11.563
   Total                   10.10        16.73        23.12        1.924       11.498

                       Min Reynolds     Mean Reynolds    Max Reynolds    Correlation
   Product             Stress (m/s)^2   Stress (m/s)^2   Stress (m/s)^2  Coefficient
   ----------------    --------------   --------------   --------------  -----------
   u'w'                    -24.094             0.145            16.706         0.071
   u'v'                    -19.708            -0.003            21.320        -0.001
   v'w'                    -13.961            -0.044            11.062        -0.025


   Friction Velocity (Ustar)  =      0.381 m/s
   Maximum Instantaneous TKE  =     25.404 (m/s)^2
   Maximum Instantaneous CTKE =     12.220 (m/s)^2


Grid Point Variance Summary:

   Y-coord  -28.00  -24.00  -20.00  -16.00  -12.00   -8.00   -4.00    0.00    4.00    8.00   12.00   16.00   20.00   24.00   28.00

   Height   Standard deviation at grid points for the u component:
    88.00    2.066   2.024   1.993   2.067   2.069   2.078   2.136   2.088   2.112   2.091   2.077   2.091   2.205   2.122   2.119
    84.00    1.959   1.963   2.044   2.029   2.098   2.112   2.146   2.174   2.098   2.109   1.976   2.013   2.061   2.032   2.043
    80.00    1.895   2.029   2.100   2.105   2.148   2.026   2.118   2.097   2.000   2.046   2.055   2.027   2.063   2.068   2.071
    76.00    1.888   2.039   2.130   2.064   2.139   2.119   2.035   2.077   2.064   2.070   2.116   1.995   1.992   2.066   2.066
    72.00    2.005   1.990   1.956   1.938   2.066   2.022   2.076   2.079   2.027   2.010   2.005   1.937   1.967   2.010   2.124
    68.00    2.060   2.060   2.027   1.993   2.045   2.057   2.027   1.955   2.027   2.147   1.972   1.974   2.057   2.138   2.211
    64.00    1.984   1.926   1.963   1.949   1.927   1.920   1.941   1.921   2.119   2.186   2.017   1.998   1.988   2.045   2.174
    60.00    1.966   1.839   1.936   1.964   1.884   1.896   1.966   1.944   2.096   2.174   2.066   1.953   2.036   2.053   2.049
    56.00    1.936   1.881   1.980   2.010   1.900   1.874   2.030   2.036   2.088   2.093   2.053   2.101   2.102   2.098   2.057
    52.00    1.915   1.926   1.900   1.918   1.973   1.901   1.967   2.005   2.159   2.101   2.086   2.152   2.174   2.195   2.154
    48.00    1.865   1.903   1.931   1.891   1.978   1.937   2.021   2.089   2.108   2.175   2.179   2.246   2.192   2.155   2.138
    44.00    1.991   1.978   1.909   1.903   1.924   1.854   2.014   2.003   2.032   2.081   2.169   2.246   2.154   1.999   2.032
    40.00    2.161   2.049   1.998   1.867   1.839   1.928   1.939   1.938   1.938   2.146   2.127   2.112   2.130   2.102   2.164
    36.00    2.126   2.079   2.052   1.995   1.800   1.885   1.969   2.037   2.067   2.067   2.129   2.016   2.141   2.162   2.180
    32.00    2.100   2.060   2.028   1.939   1.980   1.925   1.939   1.933   2.087   2.115   2.041   2.124   2.113   2.206   2.174

   Height   Standard deviation at grid points for the v component:
    88.00    1.680   1.680   1.680   1.680   1.680   1.680   1.680   1.680   1.680   1.680   1.680   1.680   1.680   1.680   1.680
    84.00    1.680   1.680   1.680   1.680   1.680   1.680   1.680   1.680   1.680   1.680   1.680   1.680   1.680   1.680   1.680
    80.00    1.680   1.680   1.680   1.680   1.680   1.680   1.680   1.680   1.680   1.680   1.680   1.680   1.680   1.680   1.680
    76.00    1.680   1.680   1.680   1.680   1.680   1.680   1.680   1.680   1.680   1.680   1.680   1.680   1.680   1.680   1.680
    72.00    1.680   1.680   1.680   1.680   1.680   1.680   1.680   1.680   1.680   1.680   1.680   1.680   1.680   1.680   1.680
    68.00    1.680   1.680   1.680   1.680   1.680   1.680   1.680   1.680   1.680   1.680   1.680   1.680   1.680   1.680   1.680
    64.00    1.680   1.680   1.680   1.680   1.680   1.680   1.680   1.680   1.680   1.680   1.680   1.680   1.680   1.680   1.680
    60.00    1.680   1.680   1.680   1.680   1.680   1.680   1.680   1.680   1.680   1.680   1.680   1.680   1.680   1.680   1.680
    56.00    1.680   1.680   1.680   1.680   1.680   1.680   1.680   1.680   1.680   1.680   1.680   1.680   1.680   1.680   1.680
    52.00    1.680   1.680   1.680   1.680   1.680   1.680   1.680   1.680   1.680   1.680   1.680   1.680   1.680   1.680   1.680
    48.00    1.680   1.680   1.680   1.680   1.680   1.680   1.680   1.680   1.680   1.680   1.680   1.680   1.680   1.680   1.680
    44.00    1.680   1.680   1.680   1.680   1.680   1.680   1.680   1.680   1.680   1.680   1.680   1.680   1.680   1.680   1.680
    40.00    1.680   1.680   1.680   1.680   1.680   1.680   1.680   1.680   1.680   1.680   1.680   1.680   1.680   1.680   1.680
    36.00    1.680   1.680   1.680   1.680   1.680   1.680   1.680   1.680   1.680   1.680   1.680   1.680   1.680   1.680   1.680
    32.00    1.680   1.680   1.680   1.680   1.680   1.680   1.680   1.680   1.680   1.680   1.680   1.680   1.680   1.680   1.680

   Height   Standard deviation at grid points for the w component:
    88.00    1.050   1.050   1.050   1.050   1.050   1.050   1.050   1.050   1.050   1.050   1.050   1.050   1.050   1.050   1.050
    84.00    1.050   1.050   1.050   1.050   1.050   1.050   1.050   1.050   1.050   1.050   1.050   1.050   1.050   1.050   1.050
    80.00    1.050   1.050   1.050   1.050   1.050   1.050   1.050   1.050   1.050   1.050   1.050   1.050   1.050   1.050   1.050
    76.00    1.050   1.050   1.050   1.050   1.050   1.050   1.050   1.050   1.050   1.050   1.050   1.050   1.050   1.050   1.050
    72.00    1.050   1.050   1.050   1.050   1.050   1.050   1.050   1.050   1.050   1.050   1.050   1.050   1.050   1.050   1.050
    68.00    1.050   1.050   1.050   1.050   1.050   1.050   1.050   1.050   1.050   1.050   1.050   1.050   1.050   1.050   1.050
    64.00    1.050   1.050   1.050   1.050   1.050   1.050   1.050   1.050   1.050   1.050   1.050   1.050   1.050   1.050   1.050
    60.00    1.050   1.050   1.050   1.050   1.050   1.050   1.050   1.050   1.050   1.050   1.050   1.050   1.050   1.050   1.050
    56.00    1.050   1.050   1.050   1.050   1.050   1.050   1.050   1.050   1.050   1.050   1.050   1.050   1.050   1.050   1.050
    52.00    1.050   1.050   1.050   1.050   1.050   1.050   1.050   1.050   1.050   1.050   1.050   1.050   1.050   1.050   1.050
    48.00    1.050   1.050   1.050   1.050   1.050   1.050   1.050   1.050   1.050   1.050   1.050   1.050   1.050   1.050   1.050
    44.00    1.050   1.050   1.050   1.050   1.050   1.050   1.050   1.050   1.050   1.050   1.050   1.050   1.050   1.050   1.050
    40.00    1.050   1.050   1.050   1.050   1.050   1.050   1.050   1.050   1.050   1.050   1.050   1.050   1.050   1.050   1.050
    36.00    1.050   1.050   1.050   1.050   1.050   1.050   1.050   1.050   1.050   1.050   1.050   1.050   1.050   1.050   1.050
    32.00    1.050   1.050   1.050   1.050   1.050   1.050   1.050   1.050   1.050   1.050   1.050   1.050   1.050   1.050   1.050

   Mean standard deviation across all grid points:
      u component:    2.038 m/s
      v component:    1.680 m/s
      w component:    1.050 m/s


U-component (X) statistics from the interpolated hub point:

   Mean =  16.6130 m/s
   TI   =  11.7037 %


Processing complete.  7.3632 CPU seconds used.
