
This summary file was generated by TurbSim (v2.00.01a-bjj, 14-Oct-2014) on 14-Jan-2016 at 10:26:21.


Runtime Options:

 745114648  Random seed #1
-154794614  Random seed #2
         F  Output binary HH turbulence parameters?
         F  Output formatted turbulence parameters?
         F  Output AeroDyn HH files?
         T  Output AeroDyn FF files?
         F  Output BLADED FF files?
         F  Output tower data?
         F  Output formatted FF files?
         F  Output coherent turbulence time step file?
         T  Clockwise rotation when looking downwind?
 0 -  NONE  IEC turbulence models scaled to exact specified standard deviation


Turbine/Model Specifications:

        15  Vertical grid-point matrix dimension
        15  Horizontal grid-point matrix dimension
     0.050  Time step [seconds]
   630.000  Analysis time [seconds]
   630.000  Usable output time [seconds]
    60.000  Hub height [m]
    56.000  Grid height [m]
    56.000  Grid width [m]
     0.000  Vertical flow angle [degrees]
     0.000  Horizontal flow angle [degrees]


Meteorological Boundary Conditions:

    USRINP  Uniform user-input spectral model
       N/A  IEC standard
       N/A  IEC turbulence characteristic
       N/A  IEC turbulence type
       N/A  IEC Extreme Turbulence Model (ETM) "c" parameter [m/s]
       PL   Wind profile type
   100.000  Reference height [m]
    16.300  Reference wind speed [m/s]
       N/A  Jet height [m]
     0.200  Power law exponent
     0.030  Surface roughness length [m]


Non-IEC Meteorological Boundary Conditions:

    45.000  Site latitude [degrees]
     0.050  Gradient Richardson number
     0.772  Friction or shear velocity [m/s]
       N/A  Mixing layer depth [m]
       N/A  Mean hub u'w' Reynolds stress
       N/A  Mean hub u'v' Reynolds stress
       N/A  Mean hub v'w' Reynolds stress


Spatial Coherence Models:

       IEC  u-component coherence model
      NONE  v-component coherence model
      NONE  w-component coherence model
(   12.000, 0.353E-03)  u-component coherence parameters
                   N/A  v-component coherence parameters
                   N/A  w-component coherence parameters
       N/A  Coherence exponent


You have requested that the following file(s) be generated:

   WP0.75A08V00\WP0.75A08V00_0.bts (AeroDyn/TurbSim full-field wind file)


Turbulence Simulation Scaling Parameter Summary:

   Turbulence model used                            =  Uniform user-input
   Gradient Richardson number                       =    0.050
   Monin-Obukhov (M-O) z/L parameter                =    0.067
   Monin-Obukhov (M-O) length scale                 =  900.000 m
   Mean wind speed at hub height                    =   14.717 m/s

   Wind profile type                                =  Power law
   Power law exponent                               =    0.200
   Mean shear across rotor disk                     =    0.052 (m/s)/m
   Assumed rotor diameter                           =   56.000 m
   Surface roughness length                         =    0.030 m

   Nyquist frequency of turbulent wind field        =   10.000 Hz

   Number of time steps in the FFT                  =    12600
   Number of time steps output                      =    12600
   Number of points simulated                       =      225


Mean Flow Angles:

   Vertical   =   0.0 degrees
   Horizontal =   0.0 degrees

Mean Wind Speed Profile:

   Height    Wind Speed   Horizontal Angle  Vertical Angle  U-comp (X)   V-comp (Y)   W-comp (Z)
     (m)        (m/s)         (degrees)       (degrees)       (m/s)        (m/s)        (m/s)   
   ------    ----------   ----------------  --------------  ----------   ----------   ----------
     88.0       15.89            0.00            0.00         15.89         0.00         0.00
     84.0       15.74            0.00            0.00         15.74         0.00         0.00
     80.0       15.59            0.00            0.00         15.59         0.00         0.00
     76.0       15.43            0.00            0.00         15.43         0.00         0.00
     72.0       15.26            0.00            0.00         15.26         0.00         0.00
     68.0       15.09            0.00            0.00         15.09         0.00         0.00
     64.0       14.91            0.00            0.00         14.91         0.00         0.00
     60.0       14.72            0.00            0.00         14.72         0.00         0.00
     56.0       14.52            0.00            0.00         14.52         0.00         0.00
     52.0       14.30            0.00            0.00         14.30         0.00         0.00
     48.0       14.07            0.00            0.00         14.07         0.00         0.00
     44.0       13.83            0.00            0.00         13.83         0.00         0.00
     40.0       13.57            0.00            0.00         13.57         0.00         0.00
     36.0       13.29            0.00            0.00         13.29         0.00         0.00
     32.0       12.98            0.00            0.00         12.98         0.00         0.00


Harvested Random Seeds after Generation of the Random Numbers:

   1386057037 Harvested seed # 1
    311436520 Harvested seed # 2


Hub-Height Simulated Turbulence Statistical Summary:

   Type of Wind        Min (m/s)   Mean (m/s)    Max (m/s)  Sigma (m/s)       TI (%)
   ----------------    ---------   ----------    ---------  -----------       ------
   Longitudinal (u)         8.16        14.72        20.31        2.084       14.161
   Lateral (v)             -5.45         0.00         5.51        1.680       11.415
   Vertical (w)            -3.70        -0.00         3.62        1.050        7.134
   U component              8.16        14.72        20.31        2.084       14.161
   V component             -5.45         0.00         5.51        1.680       11.415
   W component             -3.70        -0.00         3.62        1.050        7.134
   Horizontal (U&V)         8.16        14.81        20.31        2.073       13.996
   Total                    8.18        14.85        20.36        2.068       13.922

                       Min Reynolds     Mean Reynolds    Max Reynolds    Correlation
   Product             Stress (m/s)^2   Stress (m/s)^2   Stress (m/s)^2  Coefficient
   ----------------    --------------   --------------   --------------  -----------
   u'w'                    -14.837             0.017            13.863         0.008
   u'v'                    -21.877            -0.228            15.533        -0.065
   v'w'                    -12.420             0.050            10.628         0.029


   Friction Velocity (Ustar)  =      0.129 m/s
   Maximum Instantaneous TKE  =     22.331 (m/s)^2
   Maximum Instantaneous CTKE =     11.006 (m/s)^2


Grid Point Variance Summary:

   Y-coord  -28.00  -24.00  -20.00  -16.00  -12.00   -8.00   -4.00    0.00    4.00    8.00   12.00   16.00   20.00   24.00   28.00

   Height   Standard deviation at grid points for the u component:
    88.00    1.987   1.991   1.982   1.962   1.989   2.026   1.974   2.034   2.142   2.161   2.157   2.118   2.240   2.278   2.255
    84.00    2.084   2.047   1.959   2.017   1.982   2.002   2.035   2.058   2.026   2.145   2.092   2.151   2.242   2.165   2.190
    80.00    2.073   2.097   2.084   2.022   1.963   1.888   2.048   1.978   1.916   2.109   2.134   2.144   2.192   2.241   2.215
    76.00    2.074   2.159   2.115   2.065   1.970   1.987   1.995   1.989   2.031   2.105   2.242   2.135   2.149   2.229   2.185
    72.00    2.099   2.064   2.091   1.941   1.954   1.960   1.950   1.932   2.030   2.074   2.120   2.063   2.101   2.197   2.338
    68.00    2.081   2.072   2.069   2.032   2.051   2.028   2.002   1.950   2.068   2.186   2.107   2.114   2.175   2.217   2.351
    64.00    2.110   2.078   2.037   2.053   2.050   2.107   2.071   2.078   2.097   2.185   2.183   2.147   2.127   2.225   2.317
    60.00    2.092   2.019   2.066   2.101   2.071   2.116   2.099   2.084   2.142   2.210   2.182   2.108   2.241   2.347   2.388
    56.00    2.123   2.085   2.179   2.168   2.095   2.105   2.095   2.129   2.178   2.150   2.127   2.222   2.276   2.358   2.351
    52.00    2.168   2.098   2.034   2.151   2.125   2.167   2.048   2.129   2.114   2.192   2.127   2.257   2.269   2.389   2.265
    48.00    2.133   2.083   2.140   2.141   2.108   2.159   2.012   2.115   2.200   2.217   2.166   2.243   2.252   2.272   2.237
    44.00    2.125   2.092   2.092   2.012   2.046   2.119   2.010   2.074   2.205   2.162   2.193   2.218   2.203   2.106   2.161
    40.00    2.197   2.123   2.162   2.059   2.092   2.053   2.082   2.149   2.067   2.168   2.159   2.124   2.186   2.256   2.241
    36.00    2.129   2.079   2.185   2.240   2.175   2.106   2.190   2.180   2.163   2.183   2.220   2.189   2.202   2.254   2.207
    32.00    2.100   2.117   2.153   2.237   2.218   2.235   2.216   2.211   2.260   2.268   2.128   2.191   2.178   2.206   2.201

   Height   Standard deviation at grid points for the v component:
    88.00    1.680   1.680   1.680   1.680   1.680   1.680   1.680   1.680   1.680   1.680   1.680   1.680   1.680   1.680   1.680
    84.00    1.680   1.680   1.680   1.680   1.680   1.680   1.680   1.680   1.680   1.680   1.680   1.680   1.680   1.680   1.680
    80.00    1.680   1.680   1.680   1.680   1.680   1.680   1.680   1.680   1.680   1.680   1.680   1.680   1.680   1.680   1.680
    76.00    1.680   1.680   1.680   1.680   1.680   1.680   1.680   1.680   1.680   1.680   1.680   1.680   1.680   1.680   1.680
    72.00    1.680   1.680   1.680   1.680   1.680   1.680   1.680   1.680   1.680   1.680   1.680   1.680   1.680   1.680   1.680
    68.00    1.680   1.680   1.680   1.680   1.680   1.680   1.680   1.680   1.680   1.680   1.680   1.680   1.680   1.680   1.680
    64.00    1.680   1.680   1.680   1.680   1.680   1.680   1.680   1.680   1.680   1.680   1.680   1.680   1.680   1.680   1.680
    60.00    1.680   1.680   1.680   1.680   1.680   1.680   1.680   1.680   1.680   1.680   1.680   1.680   1.680   1.680   1.680
    56.00    1.680   1.680   1.680   1.680   1.680   1.680   1.680   1.680   1.680   1.680   1.680   1.680   1.680   1.680   1.680
    52.00    1.680   1.680   1.680   1.680   1.680   1.680   1.680   1.680   1.680   1.680   1.680   1.680   1.680   1.680   1.680
    48.00    1.680   1.680   1.680   1.680   1.680   1.680   1.680   1.680   1.680   1.680   1.680   1.680   1.680   1.680   1.680
    44.00    1.680   1.680   1.680   1.680   1.680   1.680   1.680   1.680   1.680   1.680   1.680   1.680   1.680   1.680   1.680
    40.00    1.680   1.680   1.680   1.680   1.680   1.680   1.680   1.680   1.680   1.680   1.680   1.680   1.680   1.680   1.680
    36.00    1.680   1.680   1.680   1.680   1.680   1.680   1.680   1.680   1.680   1.680   1.680   1.680   1.680   1.680   1.680
    32.00    1.680   1.680   1.680   1.680   1.680   1.680   1.680   1.680   1.680   1.680   1.680   1.680   1.680   1.680   1.680

   Height   Standard deviation at grid points for the w component:
    88.00    1.050   1.050   1.050   1.050   1.050   1.050   1.050   1.050   1.050   1.050   1.050   1.050   1.050   1.050   1.050
    84.00    1.050   1.050   1.050   1.050   1.050   1.050   1.050   1.050   1.050   1.050   1.050   1.050   1.050   1.050   1.050
    80.00    1.050   1.050   1.050   1.050   1.050   1.050   1.050   1.050   1.050   1.050   1.050   1.050   1.050   1.050   1.050
    76.00    1.050   1.050   1.050   1.050   1.050   1.050   1.050   1.050   1.050   1.050   1.050   1.050   1.050   1.050   1.050
    72.00    1.050   1.050   1.050   1.050   1.050   1.050   1.050   1.050   1.050   1.050   1.050   1.050   1.050   1.050   1.050
    68.00    1.050   1.050   1.050   1.050   1.050   1.050   1.050   1.050   1.050   1.050   1.050   1.050   1.050   1.050   1.050
    64.00    1.050   1.050   1.050   1.050   1.050   1.050   1.050   1.050   1.050   1.050   1.050   1.050   1.050   1.050   1.050
    60.00    1.050   1.050   1.050   1.050   1.050   1.050   1.050   1.050   1.050   1.050   1.050   1.050   1.050   1.050   1.050
    56.00    1.050   1.050   1.050   1.050   1.050   1.050   1.050   1.050   1.050   1.050   1.050   1.050   1.050   1.050   1.050
    52.00    1.050   1.050   1.050   1.050   1.050   1.050   1.050   1.050   1.050   1.050   1.050   1.050   1.050   1.050   1.050
    48.00    1.050   1.050   1.050   1.050   1.050   1.050   1.050   1.050   1.050   1.050   1.050   1.050   1.050   1.050   1.050
    44.00    1.050   1.050   1.050   1.050   1.050   1.050   1.050   1.050   1.050   1.050   1.050   1.050   1.050   1.050   1.050
    40.00    1.050   1.050   1.050   1.050   1.050   1.050   1.050   1.050   1.050   1.050   1.050   1.050   1.050   1.050   1.050
    36.00    1.050   1.050   1.050   1.050   1.050   1.050   1.050   1.050   1.050   1.050   1.050   1.050   1.050   1.050   1.050
    32.00    1.050   1.050   1.050   1.050   1.050   1.050   1.050   1.050   1.050   1.050   1.050   1.050   1.050   1.050   1.050

   Mean standard deviation across all grid points:
      u component:    2.128 m/s
      v component:    1.680 m/s
      w component:    1.050 m/s


U-component (X) statistics from the interpolated hub point:

   Mean =  14.7170 m/s
   TI   =  14.1615 %


Processing complete.  7.2228 CPU seconds used.
