
This summary file was generated by TurbSim (v2.00.01a-bjj, 14-Oct-2014) on 25-Sep-2015 at 12:04:56.


Runtime Options:

    123456  Random seed #1
    789012  Random seed #2
         F  Output binary HH turbulence parameters?
         F  Output formatted turbulence parameters?
         F  Output AeroDyn HH files?
         T  Output AeroDyn FF files?
         T  Output BLADED FF files?
         F  Output tower data?
         F  Output formatted FF files?
         F  Output coherent turbulence time step file?
         T  Clockwise rotation when looking downwind?
 0 -  NONE  IEC turbulence models scaled to exact specified standard deviation


Turbine/Model Specifications:

         5  Vertical grid-point matrix dimension
         5  Horizontal grid-point matrix dimension
     0.050  Time step [seconds]
   600.000  Analysis time [seconds]
   600.000  Usable output time [seconds]
    90.000  Hub height [m]
   140.000  Grid height [m]
   140.000  Grid width [m]
     0.000  Vertical flow angle [degrees]
     0.000  Horizontal flow angle [degrees]


Meteorological Boundary Conditions:

    USRINP  Uniform user-input spectral model
       N/A  IEC standard
       N/A  IEC turbulence characteristic
       N/A  IEC turbulence type
       N/A  IEC Extreme Turbulence Model (ETM) "c" parameter [m/s]
       IEC  Wind profile type
    90.000  Reference height [m]
    10.000  Reference wind speed [m/s]
       N/A  Jet height [m]
     0.200  Power law exponent
     0.030  Surface roughness length [m]


Non-IEC Meteorological Boundary Conditions:

    45.000  Site latitude [degrees]
     0.050  Gradient Richardson number
     0.480  Friction or shear velocity [m/s]
       N/A  Mixing layer depth [m]
       N/A  Mean hub u'w' Reynolds stress
       N/A  Mean hub u'v' Reynolds stress
       N/A  Mean hub v'w' Reynolds stress


Spatial Coherence Models:

   GENERAL  u-component coherence model
      NONE  v-component coherence model
      NONE  w-component coherence model
(   10.000,  0.00    )  u-component coherence parameters
                   N/A  v-component coherence parameters
                   N/A  w-component coherence parameters
     0.000  Coherence exponent


You have requested that the following file(s) be generated:

   5pts_Usr.bts (AeroDyn/TurbSim full-field wind file)
   5pts_Usr.wnd (AeroDyn/BLADED full-field wnd file)


Turbulence Simulation Scaling Parameter Summary:

   Turbulence model used                            =  Uniform user-input
   Gradient Richardson number                       =    0.050
   Monin-Obukhov (M-O) z/L parameter                =    0.067
   Monin-Obukhov (M-O) length scale                 = 1350.000 m
   Mean wind speed at hub height                    =   10.000 m/s

   Wind profile type                                =  Power law on rotor disk, logarithmic elsewhere
   Power law exponent                               =    0.200
   Mean shear across rotor disk                     =    0.027 (m/s)/m
   Assumed rotor diameter                           =  140.000 m
   Surface roughness length                         =    0.030 m

   Nyquist frequency of turbulent wind field        =   10.000 Hz

   Number of time steps in the FFT                  =    12000
   Number of time steps output                      =    12000
   Number of points simulated                       =       25


Mean Flow Angles:

   Vertical   =   0.0 degrees
   Horizontal =   0.0 degrees

Mean Wind Speed Profile:

   Height    Wind Speed   Horizontal Angle  Vertical Angle  U-comp (X)   V-comp (Y)   W-comp (Z)
     (m)        (m/s)         (degrees)       (degrees)       (m/s)        (m/s)        (m/s)   
   ------    ----------   ----------------  --------------  ----------   ----------   ----------
    160.0       11.22            0.00            0.00         11.22         0.00         0.00
    125.0       10.68            0.00            0.00         10.68         0.00         0.00
     90.0       10.00            0.00            0.00         10.00         0.00         0.00
     55.0        9.06            0.00            0.00          9.06         0.00         0.00
     20.0        7.40            0.00            0.00          7.40         0.00         0.00


Harvested Random Seeds after Generation of the Random Numbers:

     10019333 Harvested seed # 1
      6884003 Harvested seed # 2
      9167414 Harvested seed # 3
     12978756 Harvested seed # 4
      3269176 Harvested seed # 5
      4328014 Harvested seed # 6
      4121126 Harvested seed # 7
     12716644 Harvested seed # 8
    647519493 Harvested seed # 9
  -1486247517 Harvested seed #10
     76252982 Harvested seed #11
   -389673660 Harvested seed #12


Hub-Height Simulated Turbulence Statistical Summary:

   Type of Wind        Min (m/s)   Mean (m/s)    Max (m/s)  Sigma (m/s)       TI (%)
   ----------------    ---------   ----------    ---------  -----------       ------
   Longitudinal (u)         6.41        10.00        15.90        1.571       15.713
   Lateral (v)             -3.94         0.00         7.10        1.396       13.957
   Vertical (w)            -3.81        -0.00         3.85        0.878        8.785
   U component              6.41        10.00        15.90        1.571       15.713
   V component             -3.94         0.00         7.10        1.396       13.957
   W component             -3.81        -0.00         3.85        0.878        8.785
   Horizontal (U&V)         6.43        10.10        16.00        1.569       15.538
   Total                    6.51        10.14        16.00        1.567       15.463

                       Min Reynolds     Mean Reynolds    Max Reynolds    Correlation
   Product             Stress (m/s)^2   Stress (m/s)^2   Stress (m/s)^2  Coefficient
   ----------------    --------------   --------------   --------------  -----------
   u'w'                     -7.334             0.263            12.366         0.191
   u'v'                    -14.103             0.276            11.752         0.126
   v'w'                     -8.303             0.116             9.668         0.095


   Friction Velocity (Ustar)  =      0.513 m/s
   Maximum Instantaneous TKE  =     26.022 (m/s)^2
   Maximum Instantaneous CTKE =      8.417 (m/s)^2


Grid Point Variance Summary:

   Y-coord  -70.00  -35.00    0.00   35.00   70.00

   Height   Standard deviation at grid points for the u component:
   160.00    1.664   1.451   1.461   1.580   1.517
   125.00    1.597   1.590   1.394   1.607   1.510
    90.00    1.674   1.601   1.571   1.564   1.489
    55.00    1.719   1.852   1.722   1.694   1.750
    20.00    1.645   1.709   1.754   1.867   1.689

   Height   Standard deviation at grid points for the v component:
   160.00    1.396   1.396   1.396   1.396   1.396
   125.00    1.396   1.396   1.396   1.396   1.396
    90.00    1.396   1.396   1.396   1.396   1.396
    55.00    1.396   1.396   1.396   1.396   1.396
    20.00    1.396   1.396   1.396   1.396   1.396

   Height   Standard deviation at grid points for the w component:
   160.00    0.878   0.878   0.878   0.878   0.878
   125.00    0.878   0.878   0.878   0.878   0.878
    90.00    0.878   0.878   0.878   0.878   0.878
    55.00    0.878   0.878   0.878   0.878   0.878
    20.00    0.878   0.878   0.878   0.878   0.878

   Mean standard deviation across all grid points:
      u component:    1.627 m/s
      v component:    1.396 m/s
      w component:    0.878 m/s


U-component (X) statistics from the interpolated hub point:

   Mean =  10.0000 m/s
   TI   =  15.7131 %


Normalizing Parameters for Binary Data (approximate statistics):

   UBar  =  10.0000 m/s
   TI(u) =  15.7131 %
   TI(v) =  13.9574 %
   TI(w) =   8.7847 %

   Height Offset =   0.0000 m
   Grid Base     =  20.0000 m

Creating a PERIODIC output file.


Processing complete.  0.83225 CPU seconds used.
