
These predictions were generated by FAST (v7.02.00d-bjj, 20-Feb-2013) on 29-Oct-2015 at 15:17:48.
The aerodynamic calculations were made by AeroDyn (v13.00.02a-bjj, 20-Feb-2013).

 NREL 5.0 MW Baseline Wind Turbine for Use in Offshore Analysis.

Time	WindVxi	WindVyi	WindVzi	GenPwr	GenTq	OoPDefl1	IPDefl1	TwstDefl1	BldPitch1	Azimuth	RotSpeed	GenSpeed	TTDspFA	TTDspSS	TTDspTwst	Spn2MLxb1	Spn2MLyb1	RootFxc1	RootFyc1	RootFzc1	RootMxc1	RootMyc1	RootMzc1	RotTorq	LSSGagMya	LSSGagMza	YawBrFxp	YawBrFyp	YawBrFzp	YawBrMxp	YawBrMyp	YawBrMzp	TwrBsFxt	TwrBsFyt	TwrBsFzt	TwrBsMxt	TwrBsMyt	TwrBsMzt
(s)	(m/s)	(m/s)	(m/s)	(kW)	(kN·m)	(m)	(m)	(deg)	(deg)	(deg)	(rpm)	(rpm)	(m)	(m)	(deg)	(kN·m)	(kN·m)	(kN)	(kN)	(kN)	(kN·m)	(kN·m)	(kN·m)	(kN·m)	(kN·m)	(kN·m)	(kN)	(kN)	(kN)	(kN·m)	(kN·m)	(kN·m)	(kN)	(kN)	(kN)	(kN·m)	(kN·m)	(kN·m)
   0.013	 1.200E+01	 0.000E+00	 0.000E+00	 0.000E+00	 0.000E+00	 1.168E-02	-9.859E-04	 0.000E+00	 0.000E+00	 9.079E-01	 1.211E+01	 1.174E+03	-3.811E-06	-2.690E-07	 0.000E+00	 1.070E+01	-5.301E+01	 3.672E+01	-2.044E-01	 4.546E+02	 2.814E+01	 4.599E+02	 4.342E+01	 1.437E+01	-1.966E+03	 2.021E+01	 2.004E+01	 4.498E-01	-3.336E+03	 1.341E+01	-4.666E+02	-1.334E+00	-1.393E+01	-5.017E-01	-6.743E+03	 8.932E+00	-3.272E+02	-1.334E+00
