
These predictions were generated by FAST (v7.02.00d-bjj, 20-Feb-2013) on 07-Oct-2015 at 16:21:14.
The aerodynamic calculations were made by AeroDyn (v13.00.02a-bjj, 20-Feb-2013).

 NREL 5.0 MW Baseline Wind Turbine for Use in Offshore Analysis.

Time	WindVxi	WindVyi	WindVzi	GenPwr	GenTq	OoPDefl1	IPDefl1	TwstDefl1	BldPitch1	Azimuth	RotSpeed	GenSpeed	TTDspFA	TTDspSS	TTDspTwst	Spn2MLxb1	Spn2MLyb1	RootFxc1	RootFyc1	RootFzc1	RootMxc1	RootMyc1	RootMzc1	RotTorq	LSSGagMya	LSSGagMza	YawBrFxp	YawBrFyp	YawBrFzp	YawBrMxp	YawBrMyp	YawBrMzp	TwrBsFxt	TwrBsFyt	TwrBsFzt	TwrBsMxt	TwrBsMyt	TwrBsMzt
(s)	(m/s)	(m/s)	(m/s)	(kW)	(kN·m)	(m)	(m)	(deg)	(deg)	(deg)	(rpm)	(rpm)	(m)	(m)	(deg)	(kN·m)	(kN·m)	(kN)	(kN)	(kN)	(kN·m)	(kN·m)	(kN·m)	(kN·m)	(kN·m)	(kN·m)	(kN)	(kN)	(kN)	(kN·m)	(kN·m)	(kN·m)	(kN)	(kN)	(kN)	(kN·m)	(kN·m)	(kN·m)
   0.013	 1.081E+01	 1.503E+00	 3.066E-01	 0.000E+00	 0.000E+00	 1.175E-02	-1.019E-03	 0.000E+00	 0.000E+00	 9.079E-01	 1.211E+01	 1.174E+03	-4.876E-06	-5.583E-07	 0.000E+00	 7.145E+00	-6.138E+01	 3.665E+01	-1.714E+00	 4.543E+02	 4.790E+01	 4.707E+02	 4.137E+01	 1.267E+01	-1.842E+03	-4.853E+00	 1.405E+01	 2.782E-01	-3.329E+03	 1.131E+01	-3.420E+02	-4.369E+00	-1.049E+01	-4.704E-01	-6.736E+03	 8.296E+00	-2.446E+02	-4.369E+00
   0.025	 1.079E+01	 1.445E+00	 2.416E-01	 4.960E+03	 4.309E+01	 4.694E-02	-4.148E-03	 0.000E+00	 1.367E-03	 1.817E+00	 1.212E+01	 1.164E+03	-1.876E-05	-3.455E-06	 0.000E+00	-6.179E+00	-4.251E+01	 3.811E+01	-6.479E+00	 4.567E+02	 1.064E+02	 5.362E+02	 4.137E+01	 1.544E+02	-1.844E+03	 1.031E+01	 1.367E+01	 8.026E+00	-3.330E+03	 1.793E+02	-3.486E+02	-1.510E+01	-8.884E+00	-5.493E+00	-6.738E+03	 9.864E+01	-2.030E+02	-1.510E+01
   0.038	 1.076E+01	 1.386E+00	 1.765E-01	 4.922E+03	 4.310E+01	 1.031E-01	-9.177E-03	 0.000E+00	 0.000E+00	 2.726E+00	 1.213E+01	 1.155E+03	-3.853E-05	-1.165E-05	 0.000E+00	-3.296E+01	-4.246E+00	 4.186E+01	-1.386E+01	 4.587E+02	 2.091E+02	 6.414E+02	 6.383E+01	 4.089E+02	-1.858E+03	 1.958E+01	 1.397E+01	 1.837E+01	-3.333E+03	 4.104E+02	-3.700E+02	-3.370E+01	-6.538E+00	-1.182E+01	-6.740E+03	 2.080E+02	-1.427E+02	-3.370E+01
   0.050	 1.074E+01	 1.328E+00	 1.115E-01	 4.890E+03	 4.311E+01	 1.786E-01	-1.591E-02	 0.000E+00	 0.000E+00	 3.635E+00	 1.213E+01	 1.147E+03	-5.996E-05	-2.918E-05	 0.000E+00	-5.883E+01	 3.381E+01	 4.559E+01	-2.247E+01	 4.605E+02	 3.193E+02	 7.958E+02	 6.394E+01	 7.114E+02	-1.859E+03	 1.572E+01	 1.337E+01	 3.009E+01	-3.336E+03	 6.852E+02	-3.839E+02	-6.421E+01	-3.123E+00	-1.821E+01	-6.743E+03	 3.088E+02	-5.356E+01	-6.421E+01
   0.062	 1.075E+01	 1.273E+00	 2.702E-02	 4.860E+03	 4.313E+01	 2.725E-01	-2.597E-02	 0.000E+00	 0.000E+00	 4.544E+00	 1.211E+01	 1.140E+03	-7.785E-05	-6.010E-05	 0.000E+00	-1.009E+02	 9.938E+01	 3.802E+01	-3.308E+01	 4.626E+02	 4.701E+02	 8.226E+02	 2.365E+01	 1.148E+03	-1.875E+03	 1.147E+01	 1.093E+01	 4.652E+01	-3.337E+03	 1.083E+03	-4.104E+02	-1.117E+02	-9.294E-01	-2.638E+01	-6.744E+03	 4.268E+02	 1.541E+01	-1.117E+02
   0.075	 1.075E+01	 1.218E+00	-5.745E-02	 4.835E+03	 4.316E+01	 3.767E-01	-3.880E-02	 0.000E+00	 0.000E+00	 5.452E+00	 1.209E+01	 1.133E+03	-1.055E-04	-1.110E-04	 0.000E+00	-1.287E+02	 1.514E+02	 4.353E+01	-4.444E+01	 4.632E+02	 6.322E+02	 1.044E+03	 2.394E+01	 1.613E+03	-1.876E+03	-1.104E+01	 1.022E+01	 6.246E+01	-3.342E+03	 1.508E+03	-4.266E+02	-1.788E+02	 3.571E+00	-3.225E+01	-6.750E+03	 4.784E+02	 1.319E+02	-1.788E+02
   0.087	 1.076E+01	 1.163E+00	-1.419E-01	 4.815E+03	 4.318E+01	 4.977E-01	-5.650E-02	 0.000E+00	 0.000E+00	 6.358E+00	 1.206E+01	 1.128E+03	-1.215E-04	-1.867E-04	 0.000E+00	-1.501E+02	 2.142E+02	 5.027E+01	-5.509E+01	 4.635E+02	 8.045E+02	 1.303E+03	 1.269E+01	 2.105E+03	-1.905E+03	-3.211E+01	 1.130E+01	 7.750E+01	-3.349E+03	 1.960E+03	-4.713E+02	-2.709E+02	 7.412E+00	-3.513E+01	-6.757E+03	 4.459E+02	 2.329E+02	-2.709E+02
   0.100	 1.077E+01	 1.108E+00	-2.264E-01	 4.800E+03	 4.321E+01	 6.264E-01	-7.855E-02	 0.000E+00	 0.000E+00	 7.260E+00	 1.201E+01	 1.124E+03	-1.325E-04	-2.932E-04	 0.000E+00	-1.606E+02	 2.796E+02	 5.770E+01	-6.523E+01	 4.633E+02	 9.813E+02	 1.593E+03	 1.298E+01	 2.596E+03	-1.904E+03	-7.262E+01	 1.094E+01	 8.997E+01	-3.356E+03	 2.415E+03	-4.858E+02	-3.814E+02	 1.218E+01	-3.348E+01	-6.764E+03	 2.942E+02	 3.572E+02	-3.814E+02
   0.113	 1.077E+01	 1.124E+00	-2.400E-01	 4.790E+03	 4.325E+01	 7.676E-01	-1.066E-01	 0.000E+00	 0.000E+00	 8.160E+00	 1.197E+01	 1.121E+03	-1.205E-04	-4.354E-04	 0.000E+00	-1.556E+02	 3.565E+02	 6.689E+01	-7.357E+01	 4.628E+02	 1.155E+03	 1.919E+03	 7.070E+00	 3.068E+03	-1.930E+03	-1.203E+02	 1.258E+01	 9.886E+01	-3.365E+03	 2.855E+03	-5.232E+02	-5.109E+02	 1.598E+01	-2.632E+01	-6.772E+03	 3.097E+00	 4.576E+02	-5.109E+02
   0.125	 1.078E+01	 1.139E+00	-2.537E-01	 4.785E+03	 4.328E+01	 9.146E-01	-1.397E-01	 0.000E+00	 0.000E+00	 9.055E+00	 1.192E+01	 1.118E+03	-7.119E-05	-6.172E-04	 0.000E+00	-1.374E+02	 4.329E+02	 7.616E+01	-8.031E+01	 4.619E+02	 1.326E+03	 2.270E+03	 6.947E+00	 3.508E+03	-1.925E+03	-1.713E+02	 1.322E+01	 1.036E+02	-3.374E+03	 3.272E+03	-5.311E+02	-6.500E+02	 1.977E+01	-1.329E+01	-6.781E+03	-4.353E+02	 5.601E+02	-6.501E+02
   0.138	 1.078E+01	 1.155E+00	-2.673E-01	 4.785E+03	 4.332E+01	 1.071E+00	-1.788E-01	 0.000E+00	 0.000E+00	 9.947E+00	 1.187E+01	 1.117E+03	 2.422E-05	-8.423E-04	 0.000E+00	-1.027E+02	 5.212E+02	 8.431E+01	-8.475E+01	 4.611E+02	 1.487E+03	 2.619E+03	-1.094E-01	 3.902E+03	-1.938E+03	-2.116E+02	 1.515E+01	 1.037E+02	-3.383E+03	 3.653E+03	-5.532E+02	-7.882E+02	 2.182E+01	 5.795E+00	-6.790E+03	-1.021E+03	 6.232E+02	-7.882E+02
   0.150	 1.079E+01	 1.171E+00	-2.810E-01	 4.787E+03	 4.336E+01	 1.231E+00	-2.228E-01	 0.000E+00	 0.000E+00	 1.084E+01	 1.182E+01	 1.117E+03	 1.791E-04	-1.112E-03	 0.000E+00	-5.279E+01	 6.060E+02	 9.521E+01	-8.739E+01	 4.599E+02	 1.644E+03	 3.020E+03	-1.134E+00	 4.247E+03	-1.927E+03	-2.577E+02	 1.736E+01	 9.944E+01	-3.393E+03	 3.993E+03	-5.510E+02	-9.137E+02	 2.351E+01	 3.036E+01	-6.801E+03	-1.739E+03	 6.783E+02	-9.137E+02
   0.163	 1.081E+01	 1.263E+00	-2.139E-01	 4.793E+03	 4.339E+01	 1.399E+00	-2.715E-01	 0.000E+00	 0.000E+00	 1.172E+01	 1.178E+01	 1.117E+03	 4.079E-04	-1.429E-03	 0.000E+00	 1.165E+01	 7.011E+02	 1.064E+02	-8.852E+01	 4.591E+02	 1.792E+03	 3.429E+03	-7.505E+00	 4.541E+03	-1.921E+03	-3.110E+02	 2.066E+01	 9.121E+01	-3.403E+03	 4.292E+03	-5.453E+02	-1.020E+03	 2.364E+01	 5.946E+01	-6.811E+03	-2.563E+03	 6.987E+02	-1.020E+03
   0.175	 1.084E+01	 1.356E+00	-1.468E-01	 4.801E+03	 4.343E+01	 1.568E+00	-3.236E-01	 0.000E+00	 0.000E+00	 1.260E+01	 1.175E+01	 1.118E+03	 7.227E-04	-1.792E-03	 0.000E+00	 8.583E+01	 7.919E+02	 1.186E+02	-8.789E+01	 4.581E+02	 1.933E+03	 3.866E+03	-9.733E+00	 4.788E+03	-1.903E+03	-3.430E+02	 2.487E+01	 7.990E+01	-3.414E+03	 4.553E+03	-5.295E+02	-1.105E+03	 2.237E+01	 9.170E+01	-6.822E+03	-3.455E+03	 6.894E+02	-1.105E+03
   0.188	 1.086E+01	 1.448E+00	-7.972E-02	 4.812E+03	 4.346E+01	 1.743E+00	-3.779E-01	 0.000E+00	 0.000E+00	 1.348E+01	 1.173E+01	 1.120E+03	 1.140E-03	-2.201E-03	 0.000E+00	 1.671E+02	 8.896E+02	 1.300E+02	-8.630E+01	 4.575E+02	 2.065E+03	 4.295E+03	-1.959E+01	 4.997E+03	-1.898E+03	-3.608E+02	 3.069E+01	 6.672E+01	-3.426E+03	 4.781E+03	-5.224E+02	-1.164E+03	 1.885E+01	 1.254E+02	-6.833E+03	-4.371E+03	 6.320E+02	-1.164E+03
   0.200	 1.088E+01	 1.541E+00	-1.264E-02	 4.824E+03	 4.349E+01	 1.920E+00	-4.329E-01	 0.000E+00	 0.000E+00	 1.436E+01	 1.173E+01	 1.122E+03	 1.672E-03	-2.655E-03	 0.000E+00	 2.501E+02	 9.838E+02	 1.430E+02	-8.429E+01	 4.569E+02	 2.196E+03	 4.752E+03	-2.293E+01	 5.176E+03	-1.870E+03	-3.760E+02	 3.705E+01	 5.282E+01	-3.437E+03	 4.981E+03	-4.925E+02	-1.204E+03	 1.433E+01	 1.586E+02	-6.844E+03	-5.265E+03	 5.574E+02	-1.204E+03
   0.213	 1.092E+01	 1.585E+00	-5.437E-02	 4.838E+03	 4.352E+01	 2.101E+00	-4.872E-01	 0.000E+00	 0.000E+00	 1.524E+01	 1.174E+01	 1.124E+03	 2.337E-03	-3.152E-03	 0.000E+00	 3.307E+02	 1.080E+03	 1.566E+02	-8.297E+01	 4.566E+02	 2.327E+03	 5.215E+03	-2.985E+01	 5.337E+03	-1.817E+03	-4.079E+02	 4.330E+01	 3.955E+01	-3.448E+03	 5.164E+03	-4.300E+02	-1.228E+03	 8.998E+00	 1.895E+02	-6.855E+03	-6.085E+03	 4.727E+02	-1.228E+03
   0.225	 1.095E+01	 1.629E+00	-9.610E-02	 4.829E+03	 4.333E+01	 2.282E+00	-5.393E-01	 0.000E+00	 0.000E+00	 1.612E+01	 1.176E+01	 1.127E+03	 3.146E-03	-3.691E-03	 0.000E+00	 4.045E+02	 1.175E+03	 1.697E+02	-8.164E+01	 4.563E+02	 2.453E+03	 5.673E+03	-3.379E+01	 5.488E+03	-1.782E+03	-4.144E+02	 5.170E+01	 2.810E+01	-3.460E+03	 5.333E+03	-3.861E+02	-1.251E+03	 1.466E+00	 2.164E+02	-6.867E+03	-6.789E+03	 3.468E+02	-1.251E+03
   0.237	 1.098E+01	 1.673E+00	-1.378E-01	 4.821E+03	 4.315E+01	 2.466E+00	-5.879E-01	 0.000E+00	 0.000E+00	 1.701E+01	 1.179E+01	 1.130E+03	 4.115E-03	-4.269E-03	 0.000E+00	 4.683E+02	 1.271E+03	 1.824E+02	-8.120E+01	 4.563E+02	 2.575E+03	 6.123E+03	-4.241E+01	 5.637E+03	-1.758E+03	-4.056E+02	 6.169E+01	 1.955E+01	-3.471E+03	 5.495E+03	-3.521E+02	-1.272E+03	-7.713E+00	 2.377E+02	-6.879E+03	-7.338E+03	 1.961E+02	-1.272E+03
   0.250	 1.101E+01	 1.717E+00	-1.796E-01	 4.815E+03	 4.296E+01	 2.649E+00	-6.318E-01	 0.000E+00	 0.000E+00	 1.789E+01	 1.182E+01	 1.134E+03	 5.258E-03	-4.887E-03	 0.000E+00	 5.175E+02	 1.365E+03	 1.950E+02	-8.223E+01	 4.561E+02	 2.698E+03	 6.564E+03	-4.616E+01	 5.788E+03	-1.720E+03	-4.091E+02	 7.175E+01	 1.449E+01	-3.483E+03	 5.652E+03	-2.987E+02	-1.300E+03	-1.731E+01	 2.524E+02	-6.890E+03	-7.701E+03	 5.263E+01	-1.300E+03
   0.263	 1.105E+01	 1.680E+00	-2.378E-01	 4.811E+03	 4.277E+01	 2.835E+00	-6.703E-01	 0.000E+00	 0.000E+00	 1.878E+01	 1.187E+01	 1.138E+03	 6.589E-03	-5.541E-03	 0.000E+00	 5.504E+02	 1.459E+03	 2.075E+02	-8.524E+01	 4.559E+02	 2.825E+03	 6.998E+03	-5.047E+01	 5.943E+03	-1.652E+03	-4.310E+02	 8.086E+01	 1.332E+01	-3.493E+03	 5.804E+03	-2.106E+02	-1.338E+03	-2.649E+01	 2.596E+02	-6.900E+03	-7.861E+03	-5.995E+01	-1.337E+03
   0.275	 1.108E+01	 1.643E+00	-2.960E-01	 4.808E+03	 4.258E+01	 3.019E+00	-7.029E-01	 0.000E+00	 0.000E+00	 1.967E+01	 1.191E+01	 1.142E+03	 8.117E-03	-6.233E-03	 0.000E+00	 5.673E+02	 1.551E+03	 2.189E+02	-8.927E+01	 4.555E+02	 2.945E+03	 7.408E+03	-5.319E+01	 6.097E+03	-1.616E+03	-4.356E+02	 9.192E+01	 1.610E+01	-3.503E+03	 5.948E+03	-1.521E+02	-1.383E+03	-3.672E+01	 2.594E+02	-6.911E+03	-7.813E+03	-1.744E+02	-1.383E+03
   0.287	 1.112E+01	 1.605E+00	-3.543E-01	 4.807E+03	 4.240E+01	 3.204E+00	-7.294E-01	 0.000E+00	 0.000E+00	 2.057E+01	 1.195E+01	 1.147E+03	 9.856E-03	-6.961E-03	 0.000E+00	 5.682E+02	 1.643E+03	 2.290E+02	-9.462E+01	 4.551E+02	 3.058E+03	 7.793E+03	-5.818E+01	 6.245E+03	-1.581E+03	-4.285E+02	 1.032E+02	 2.254E+01	-3.513E+03	 6.079E+03	-9.756E+01	-1.433E+03	-4.674E+01	 2.520E+02	-6.921E+03	-7.563E+03	-2.568E+02	-1.432E+03
   0.300	 1.115E+01	 1.568E+00	-4.125E-01	 4.807E+03	 4.221E+01	 3.388E+00	-7.503E-01	 0.000E+00	 0.000E+00	 2.147E+01	 1.199E+01	 1.152E+03	 1.181E-02	-7.726E-03	 0.000E+00	 5.541E+02	 1.732E+03	 2.388E+02	-1.013E+02	 4.543E+02	 3.167E+03	 8.161E+03	-5.935E+01	 6.377E+03	-1.548E+03	-4.285E+02	 1.145E+02	 3.185E+01	-3.523E+03	 6.188E+03	-4.154E+01	-1.478E+03	-5.579E+01	 2.381E+02	-6.930E+03	-7.129E+03	-2.868E+02	-1.478E+03
   0.312	 1.111E+01	 1.587E+00	-4.382E-01	 4.819E+03	 4.212E+01	 3.570E+00	-7.659E-01	 0.000E+00	 0.000E+00	 2.237E+01	 1.203E+01	 1.157E+03	 1.400E-02	-8.528E-03	 0.000E+00	 5.279E+02	 1.820E+03	 2.478E+02	-1.087E+02	 4.534E+02	 3.267E+03	 8.508E+03	-6.047E+01	 6.482E+03	-1.511E+03	-4.240E+02	 1.254E+02	 4.322E+01	-3.531E+03	 6.268E+03	 1.627E+01	-1.517E+03	-6.338E+01	 2.188E+02	-6.939E+03	-6.539E+03	-2.491E+02	-1.517E+03
   0.325	 1.107E+01	 1.606E+00	-4.640E-01	 4.842E+03	 4.211E+01	 3.751E+00	-7.769E-01	 0.000E+00	 0.000E+00	 2.327E+01	 1.205E+01	 1.163E+03	 1.642E-02	-9.367E-03	 0.000E+00	 4.920E+02	 1.907E+03	 2.557E+02	-1.166E+02	 4.522E+02	 3.356E+03	 8.824E+03	-6.004E+01	 6.549E+03	-1.484E+03	-4.121E+02	 1.361E+02	 5.554E+01	-3.539E+03	 6.308E+03	 6.311E+01	-1.540E+03	-6.940E+01	 1.956E+02	-6.947E+03	-5.828E+03	-1.386E+02	-1.539E+03
   0.338	 1.102E+01	 1.624E+00	-4.897E-01	 4.870E+03	 4.215E+01	 3.929E+00	-7.844E-01	 0.000E+00	 0.000E+00	 2.417E+01	 1.207E+01	 1.169E+03	 1.908E-02	-1.024E-02	 0.000E+00	 4.507E+02	 1.993E+03	 2.621E+02	-1.242E+02	 4.510E+02	 3.427E+03	 9.104E+03	-6.129E+01	 6.565E+03	-1.476E+03	-3.833E+02	 1.472E+02	 6.772E+01	-3.547E+03	 6.300E+03	 8.529E+01	-1.546E+03	-7.382E+01	 1.699E+02	-6.954E+03	-5.033E+03	 4.784E+01	-1.545E+03
   0.350	 1.098E+01	 1.643E+00	-5.155E-01	 4.903E+03	 4.223E+01	 4.105E+00	-7.892E-01	 0.000E+00	 0.000E+00	 2.508E+01	 1.207E+01	 1.174E+03	 2.199E-02	-1.116E-02	 0.000E+00	 4.064E+02	 2.075E+03	 2.680E+02	-1.316E+02	 4.495E+02	 3.486E+03	 9.365E+03	-5.972E+01	 6.521E+03	-1.453E+03	-3.563E+02	 1.566E+02	 7.859E+01	-3.553E+03	 6.237E+03	 1.180E+02	-1.533E+03	-7.514E+01	 1.432E+02	-6.961E+03	-4.195E+03	 3.480E+02	-1.533E+03
   0.363	 1.102E+01	 1.595E+00	-4.233E-01	 4.940E+03	 4.235E+01	 4.277E+00	-7.923E-01	 0.000E+00	 0.000E+00	 2.598E+01	 1.207E+01	 1.180E+03	 2.515E-02	-1.211E-02	 0.000E+00	 3.635E+02	 2.157E+03	 2.738E+02	-1.380E+02	 4.479E+02	 3.526E+03	 9.602E+03	-5.612E+01	 6.411E+03	-1.433E+03	-3.251E+02	 1.654E+02	 8.719E+01	-3.559E+03	 6.112E+03	 1.430E+02	-1.504E+03	-7.360E+01	 1.171E+02	-6.967E+03	-3.350E+03	 7.572E+02	-1.504E+03
   0.375	 1.105E+01	 1.547E+00	-3.312E-01	 4.981E+03	 4.252E+01	 4.445E+00	-7.945E-01	 0.000E+00	 0.000E+00	 2.689E+01	 1.206E+01	 1.185E+03	 2.857E-02	-1.310E-02	 0.000E+00	 3.236E+02	 2.236E+03	 2.778E+02	-1.431E+02	 4.463E+02	 3.548E+03	 9.806E+03	-5.418E+01	 6.230E+03	-1.415E+03	-2.859E+02	 1.731E+02	 9.278E+01	-3.564E+03	 5.925E+03	 1.595E+02	-1.463E+03	-6.917E+01	 9.273E+01	-6.972E+03	-2.533E+03	 1.278E+03	-1.463E+03
   0.388	 1.108E+01	 1.498E+00	-2.391E-01	 5.022E+03	 4.271E+01	 4.609E+00	-7.966E-01	 0.000E+00	 0.000E+00	 2.779E+01	 1.205E+01	 1.190E+03	 3.224E-02	-1.412E-02	 0.000E+00	 2.892E+02	 2.314E+03	 2.804E+02	-1.465E+02	 4.446E+02	 3.550E+03	 9.975E+03	-5.240E+01	 5.978E+03	-1.412E+03	-2.271E+02	 1.806E+02	 9.486E+01	-3.569E+03	 5.675E+03	 1.509E+02	-1.414E+03	-6.227E+01	 7.112E+01	-6.976E+03	-1.770E+03	 1.901E+03	-1.414E+03
   0.400	 1.112E+01	 1.450E+00	-1.470E-01	 5.061E+03	 4.290E+01	 4.769E+00	-7.990E-01	 0.000E+00	 0.000E+00	 2.870E+01	 1.203E+01	 1.193E+03	 3.617E-02	-1.517E-02	 0.000E+00	 2.618E+02	 2.389E+03	 2.825E+02	-1.486E+02	 4.430E+02	 3.536E+03	 1.012E+04	-5.086E+01	 5.662E+03	-1.401E+03	-1.799E+02	 1.865E+02	 9.320E+01	-3.573E+03	 5.369E+03	 1.508E+02	-1.358E+03	-5.178E+01	 5.284E+01	-6.980E+03	-1.077E+03	 2.652E+03	-1.358E+03
   0.412	 1.114E+01	 1.430E+00	-1.065E-01	 5.095E+03	 4.308E+01	 4.922E+00	-8.020E-01	 0.000E+00	 0.000E+00	 2.960E+01	 1.201E+01	 1.196E+03	 4.036E-02	-1.626E-02	 0.000E+00	 2.409E+02	 2.461E+03	 2.834E+02	-1.492E+02	 4.415E+02	 3.509E+03	 1.024E+04	-4.937E+01	 5.289E+03	-1.394E+03	-1.339E+02	 1.914E+02	 8.794E+01	-3.575E+03	 5.013E+03	 1.428E+02	-1.303E+03	-3.851E+01	 3.813E+01	-6.983E+03	-4.645E+02	 3.511E+03	-1.303E+03
   0.425	 1.115E+01	 1.410E+00	-6.601E-02	 5.126E+03	 4.327E+01	 5.071E+00	-8.059E-01	 0.000E+00	 0.000E+00	 3.050E+01	 1.199E+01	 1.198E+03	 4.481E-02	-1.736E-02	 0.000E+00	 2.276E+02	 2.532E+03	 2.838E+02	-1.484E+02	 4.402E+02	 3.468E+03	 1.034E+04	-4.865E+01	 4.871E+03	-1.391E+03	-8.353E+01	 1.957E+02	 7.950E+01	-3.577E+03	 4.618E+03	 1.284E+02	-1.249E+03	-2.253E+01	 2.687E+01	-6.985E+03	 6.784E+01	 4.475E+03	-1.249E+03
   0.438	 1.117E+01	 1.389E+00	-2.551E-02	 5.153E+03	 4.346E+01	 5.213E+00	-8.104E-01	 0.000E+00	 0.000E+00	 3.140E+01	 1.197E+01	 1.199E+03	 4.950E-02	-1.848E-02	 0.000E+00	 2.188E+02	 2.598E+03	 2.831E+02	-1.469E+02	 4.389E+02	 3.422E+03	 1.041E+04	-4.874E+01	 4.424E+03	-1.385E+03	-4.864E+01	 1.988E+02	 6.854E+01	-3.578E+03	 4.199E+03	 1.205E+02	-1.200E+03	-3.962E+00	 1.862E+01	-6.985E+03	 5.275E+02	 5.540E+03	-1.199E+03
   0.450	 1.119E+01	 1.369E+00	 1.499E-02	 5.155E+03	 4.348E+01	 5.349E+00	-8.155E-01	 0.000E+00	 0.000E+00	 3.229E+01	 1.196E+01	 1.199E+03	 5.445E-02	-1.962E-02	 0.000E+00	 2.151E+02	 2.662E+03	 2.821E+02	-1.445E+02	 4.380E+02	 3.368E+03	 1.047E+04	-4.876E+01	 3.964E+03	-1.391E+03	 1.533E+00	 2.023E+02	 5.591E+01	-3.578E+03	 3.770E+03	 9.594E+01	-1.160E+03	 1.611E+01	 1.274E+01	-6.986E+03	 9.275E+02	 6.677E+03	-1.159E+03
   0.463	 1.110E+01	 1.427E+00	 3.736E-03	 5.147E+03	 4.345E+01	 5.478E+00	-8.207E-01	 0.000E+00	 0.000E+00	 3.319E+01	 1.195E+01	 1.198E+03	 5.965E-02	-2.076E-02	 0.000E+00	 2.140E+02	 2.721E+03	 2.821E+02	-1.423E+02	 4.370E+02	 3.318E+03	 1.052E+04	-4.559E+01	 3.508E+03	-1.391E+03	 4.243E+01	 2.054E+02	 4.256E+01	-3.578E+03	 3.347E+03	 7.846E+01	-1.122E+03	 3.799E+01	 8.364E+00	-6.986E+03	 1.286E+03	 7.891E+03	-1.121E+03
   0.475	 1.100E+01	 1.486E+00	-7.515E-03	 5.135E+03	 4.343E+01	 5.601E+00	-8.258E-01	 0.000E+00	 0.000E+00	 3.409E+01	 1.195E+01	 1.196E+03	 6.509E-02	-2.190E-02	 0.000E+00	 2.123E+02	 2.778E+03	 2.800E+02	-1.401E+02	 4.366E+02	 3.271E+03	 1.054E+04	-4.582E+01	 3.075E+03	-1.404E+03	 9.352E+01	 2.090E+02	 2.947E+01	-3.577E+03	 2.945E+03	 4.894E+01	-1.090E+03	 6.016E+01	 4.619E+00	-6.984E+03	 1.622E+03	 9.144E+03	-1.090E+03
   0.488	 1.091E+01	 1.544E+00	-1.877E-02	 5.119E+03	 4.340E+01	 5.715E+00	-8.304E-01	 0.000E+00	 0.000E+00	 3.498E+01	 1.195E+01	 1.193E+03	 7.077E-02	-2.304E-02	 0.000E+00	 2.090E+02	 2.828E+03	 2.781E+02	-1.388E+02	 4.362E+02	 3.234E+03	 1.055E+04	-4.426E+01	 2.678E+03	-1.407E+03	 1.428E+02	 2.126E+02	 1.753E+01	-3.575E+03	 2.576E+03	 2.878E+01	-1.058E+03	 8.293E+01	 6.531E-01	-6.983E+03	 1.954E+03	 1.044E+04	-1.057E+03
   0.500	 1.082E+01	 1.603E+00	-3.002E-02	 5.100E+03	 4.338E+01	 5.823E+00	-8.344E-01	 0.000E+00	 0.000E+00	 3.588E+01	 1.195E+01	 1.189E+03	 7.668E-02	-2.417E-02	 0.000E+00	 2.023E+02	 2.877E+03	 2.755E+02	-1.384E+02	 4.362E+02	 3.209E+03	 1.054E+04	-4.406E+01	 2.330E+03	-1.423E+03	 1.975E+02	 2.174E+02	 7.489E+00	-3.573E+03	 2.253E+03	 4.442E-01	-1.022E+03	 1.051E+02	-4.244E+00	-6.980E+03	 2.299E+03	 1.175E+04	-1.021E+03
   0.512	 1.088E+01	 1.636E+00	-5.563E-02	 5.078E+03	 4.337E+01	 5.922E+00	-8.376E-01	 0.000E+00	 0.000E+00	 3.678E+01	 1.195E+01	 1.184E+03	 8.282E-02	-2.529E-02	 0.000E+00	 1.931E+02	 2.917E+03	 2.736E+02	-1.391E+02	 4.366E+02	 3.198E+03	 1.053E+04	-4.065E+01	 2.041E+03	-1.437E+03	 2.391E+02	 2.228E+02	-1.034E-01	-3.569E+03	 1.983E+03	-1.441E+01	-9.843E+02	 1.271E+02	-1.058E+01	-6.977E+03	 2.665E+03	 1.308E+04	-9.837E+02
   0.525	 1.094E+01	 1.668E+00	-8.125E-02	 5.054E+03	 4.335E+01	 6.013E+00	-8.401E-01	 0.000E+00	 0.000E+00	 3.767E+01	 1.196E+01	 1.179E+03	 8.919E-02	-2.639E-02	 0.000E+00	 1.786E+02	 2.957E+03	 2.709E+02	-1.413E+02	 4.371E+02	 3.204E+03	 1.051E+04	-3.963E+01	 1.816E+03	-1.454E+03	 2.951E+02	 2.296E+02	-4.926E+00	-3.566E+03	 1.773E+03	-3.483E+01	-9.493E+02	 1.474E+02	-1.862E+01	-6.973E+03	 3.060E+03	 1.438E+04	-9.487E+02
   0.538	 1.100E+01	 1.701E+00	-1.069E-01	 5.028E+03	 4.334E+01	 6.095E+00	-8.421E-01	 0.000E+00	 0.000E+00	 3.857E+01	 1.196E+01	 1.174E+03	 9.578E-02	-2.747E-02	 0.000E+00	 1.619E+02	 2.989E+03	 2.686E+02	-1.447E+02	 4.378E+02	 3.226E+03	 1.048E+04	-3.845E+01	 1.659E+03	-1.462E+03	 3.307E+02	 2.369E+02	-6.944E+00	-3.561E+03	 1.623E+03	-3.110E+01	-9.157E+02	 1.669E+02	-2.834E+01	-6.968E+03	 3.482E+03	 1.569E+04	-9.151E+02
   0.550	 1.106E+01	 1.734E+00	-1.325E-01	 5.002E+03	 4.334E+01	 6.169E+00	-8.442E-01	 0.000E+00	 0.000E+00	 3.947E+01	 1.195E+01	 1.168E+03	 1.026E-01	-2.853E-02	 0.000E+00	 1.422E+02	 3.021E+03	 2.661E+02	-1.491E+02	 4.384E+02	 3.265E+03	 1.045E+04	-3.681E+01	 1.567E+03	-1.479E+03	 3.835E+02	 2.463E+02	-6.345E+00	-3.556E+03	 1.532E+03	-3.854E+01	-8.957E+02	 1.840E+02	-3.943E+01	-6.963E+03	 3.922E+03	 1.696E+04	-8.951E+02
   0.562	 1.108E+01	 1.728E+00	-2.066E-01	 4.976E+03	 4.334E+01	 6.233E+00	-8.465E-01	 0.000E+00	 0.000E+00	 4.036E+01	 1.194E+01	 1.161E+03	 1.096E-01	-2.956E-02	 0.000E+00	 1.238E+02	 3.042E+03	 2.646E+02	-1.544E+02	 4.390E+02	 3.318E+03	 1.042E+04	-3.317E+01	 1.537E+03	-1.497E+03	 4.306E+02	 2.573E+02	-3.497E+00	-3.551E+03	 1.498E+03	-3.605E+01	-8.828E+02	 1.995E+02	-5.140E+01	-6.958E+03	 4.369E+03	 1.821E+04	-8.821E+02
   0.575	 1.110E+01	 1.723E+00	-2.808E-01	 4.950E+03	 4.334E+01	 6.289E+00	-8.500E-01	 0.000E+00	 0.000E+00	 4.126E+01	 1.193E+01	 1.155E+03	 1.168E-01	-3.058E-02	 0.000E+00	 1.059E+02	 3.065E+03	 2.624E+02	-1.600E+02	 4.395E+02	 3.386E+03	 1.038E+04	-3.166E+01	 1.561E+03	-1.513E+03	 4.779E+02	 2.695E+02	 9.847E-01	-3.545E+03	 1.513E+03	-2.704E+01	-8.843E+02	 2.130E+02	-6.354E+01	-6.953E+03	 4.804E+03	 1.942E+04	-8.836E+02
   0.588	 1.112E+01	 1.717E+00	-3.549E-01	 4.925E+03	 4.335E+01	 6.335E+00	-8.551E-01	 0.000E+00	 0.000E+00	 4.215E+01	 1.191E+01	 1.149E+03	 1.242E-01	-3.157E-02	 0.000E+00	 9.257E+01	 3.080E+03	 2.611E+02	-1.662E+02	 4.399E+02	 3.467E+03	 1.036E+04	-2.990E+01	 1.632E+03	-1.508E+03	 5.069E+02	 2.821E+02	 6.460E+00	-3.539E+03	 1.573E+03	 1.190E+01	-8.927E+02	 2.253E+02	-7.506E+01	-6.947E+03	 5.209E+03	 2.062E+04	-8.919E+02
   0.600	 1.114E+01	 1.712E+00	-4.291E-01	 4.902E+03	 4.336E+01	 6.372E+00	-8.626E-01	 0.000E+00	 0.000E+00	 4.304E+01	 1.188E+01	 1.143E+03	 1.318E-01	-3.255E-02	 0.000E+00	 8.570E+01	 3.095E+03	 2.594E+02	-1.718E+02	 4.404E+02	 3.555E+03	 1.032E+04	-2.960E+01	 1.740E+03	-1.518E+03	 5.506E+02	 2.969E+02	 1.221E+01	-3.533E+03	 1.668E+03	 3.864E+01	-9.057E+02	 2.353E+02	-8.506E+01	-6.941E+03	 5.562E+03	 2.178E+04	-9.048E+02
   0.613	 1.119E+01	 1.651E+00	-4.171E-01	 4.880E+03	 4.338E+01	 6.400E+00	-8.727E-01	 0.000E+00	 0.000E+00	 4.393E+01	 1.185E+01	 1.138E+03	 1.395E-01	-3.350E-02	 0.000E+00	 8.875E+01	 3.104E+03	 2.592E+02	-1.770E+02	 4.408E+02	 3.649E+03	 1.031E+04	-2.834E+01	 1.877E+03	-1.526E+03	 5.989E+02	 3.133E+02	 1.763E+01	-3.528E+03	 1.793E+03	 6.702E+01	-9.173E+02	 2.439E+02	-9.279E+01	-6.935E+03	 5.843E+03	 2.292E+04	-9.163E+02
   0.625	 1.125E+01	 1.590E+00	-4.052E-01	 4.860E+03	 4.340E+01	 6.419E+00	-8.861E-01	 0.000E+00	 0.000E+00	 4.482E+01	 1.181E+01	 1.133E+03	 1.475E-01	-3.445E-02	 0.000E+00	 1.004E+02	 3.112E+03	 2.584E+02	-1.814E+02	 4.414E+02	 3.750E+03	 1.028E+04	-3.019E+01	 2.034E+03	-1.521E+03	 6.435E+02	 3.300E+02	 2.205E+01	-3.521E+03	 1.941E+03	 1.102E+02	-9.221E+02	 2.515E+02	-9.757E+01	-6.929E+03	 6.038E+03	 2.405E+04	-9.209E+02
   0.637	 1.130E+01	 1.529E+00	-3.932E-01	 4.842E+03	 4.343E+01	 6.428E+00	-9.027E-01	 0.000E+00	 0.000E+00	 4.570E+01	 1.178E+01	 1.128E+03	 1.556E-01	-3.538E-02	 0.000E+00	 1.236E+02	 3.117E+03	 2.577E+02	-1.849E+02	 4.423E+02	 3.851E+03	 1.026E+04	-3.400E+01	 2.207E+03	-1.510E+03	 6.843E+02	 3.473E+02	 2.508E+01	-3.515E+03	 2.108E+03	 1.629E+02	-9.151E+02	 2.587E+02	-9.888E+01	-6.923E+03	 6.133E+03	 2.519E+04	-9.138E+02
   0.650	 1.136E+01	 1.468E+00	-3.812E-01	 4.826E+03	 4.345E+01	 6.430E+00	-9.228E-01	 0.000E+00	 0.000E+00	 4.659E+01	 1.174E+01	 1.123E+03	 1.639E-01	-3.630E-02	 0.000E+00	 1.572E+02	 3.119E+03	 2.579E+02	-1.873E+02	 4.433E+02	 3.957E+03	 1.025E+04	-3.841E+01	 2.388E+03	-1.485E+03	 7.323E+02	 3.651E+02	 2.638E+01	-3.509E+03	 2.288E+03	 2.193E+02	-8.962E+02	 2.657E+02	-9.641E+01	-6.917E+03	 6.121E+03	 2.634E+04	-8.948E+02
   0.663	 1.133E+01	 1.434E+00	-3.868E-01	 4.812E+03	 4.348E+01	 6.424E+00	-9.459E-01	 0.000E+00	 0.000E+00	 4.747E+01	 1.171E+01	 1.119E+03	 1.723E-01	-3.721E-02	 0.000E+00	 2.016E+02	 3.116E+03	 2.582E+02	-1.888E+02	 4.445E+02	 4.063E+03	 1.024E+04	-4.513E+01	 2.578E+03	-1.452E+03	 7.877E+02	 3.833E+02	 2.592E+01	-3.503E+03	 2.481E+03	 2.755E+02	-8.603E+02	 2.728E+02	-9.013E+01	-6.911E+03	 6.003E+03	 2.751E+04	-8.587E+02
   0.675	 1.130E+01	 1.400E+00	-3.923E-01	 4.800E+03	 4.351E+01	 6.410E+00	-9.719E-01	 0.000E+00	 0.000E+00	 4.834E+01	 1.168E+01	 1.116E+03	 1.808E-01	-3.812E-02	 0.000E+00	 2.549E+02	 3.111E+03	 2.594E+02	-1.894E+02	 4.459E+02	 4.170E+03	 1.025E+04	-5.180E+01	 2.774E+03	-1.404E+03	 8.392E+02	 4.013E+02	 2.365E+01	-3.497E+03	 2.684E+03	 3.407E+02	-8.102E+02	 2.808E+02	-8.016E+01	-6.905E+03	 5.782E+03	 2.872E+04	-8.085E+02
   0.688	 1.128E+01	 1.366E+00	-3.979E-01	 4.767E+03	 4.333E+01	 6.389E+00	-9.998E-01	 0.000E+00	 0.000E+00	 4.922E+01	 1.165E+01	 1.113E+03	 1.895E-01	-3.902E-02	 0.000E+00	 3.160E+02	 3.103E+03	 2.613E+02	-1.895E+02	 4.475E+02	 4.279E+03	 1.026E+04	-6.078E+01	 2.978E+03	-1.350E+03	 9.059E+02	 4.196E+02	 1.991E+01	-3.492E+03	 2.899E+03	 3.956E+02	-7.458E+02	 2.896E+02	-6.695E+01	-6.900E+03	 5.470E+03	 2.997E+04	-7.438E+02
   0.700	 1.125E+01	 1.332E+00	-4.034E-01	 4.735E+03	 4.314E+01	 6.362E+00	-1.029E+00	 0.000E+00	 0.000E+00	 5.009E+01	 1.163E+01	 1.110E+03	 1.984E-01	-3.992E-02	 0.000E+00	 3.816E+02	 3.093E+03	 2.632E+02	-1.889E+02	 4.494E+02	 4.387E+03	 1.027E+04	-6.869E+01	 3.190E+03	-1.278E+03	 9.577E+02	 4.367E+02	 1.494E+01	-3.487E+03	 3.126E+03	 4.662E+02	-6.678E+02	 3.003E+02	-5.101E+01	-6.895E+03	 5.082E+03	 3.129E+04	-6.657E+02
   0.713	 1.126E+01	 1.466E+00	-3.536E-01	 4.706E+03	 4.295E+01	 6.329E+00	-1.059E+00	 0.000E+00	 0.000E+00	 5.096E+01	 1.162E+01	 1.108E+03	 2.074E-01	-4.083E-02	 0.000E+00	 4.503E+02	 3.077E+03	 2.673E+02	-1.886E+02	 4.510E+02	 4.500E+03	 1.032E+04	-7.572E+01	 3.413E+03	-1.184E+03	 1.017E+03	 4.534E+02	 9.263E+00	-3.483E+03	 3.366E+03	 5.358E+02	-5.826E+02	 3.129E+02	-3.313E+01	-6.891E+03	 4.639E+03	 3.267E+04	-5.803E+02
   0.725	 1.127E+01	 1.600E+00	-3.037E-01	 4.679E+03	 4.277E+01	 6.292E+00	-1.088E+00	 0.000E+00	 0.000E+00	 5.183E+01	 1.162E+01	 1.107E+03	 2.165E-01	-4.173E-02	 0.000E+00	 5.174E+02	 3.062E+03	 2.696E+02	-1.880E+02	 4.533E+02	 4.609E+03	 1.034E+04	-8.352E+01	 3.649E+03	-1.091E+03	 1.066E+03	 4.690E+02	 3.301E+00	-3.478E+03	 3.620E+03	 6.086E+02	-4.848E+02	 3.275E+02	-1.406E+01	-6.887E+03	 4.160E+03	 3.412E+04	-4.822E+02
   0.738	 1.127E+01	 1.735E+00	-2.539E-01	 4.655E+03	 4.258E+01	 6.250E+00	-1.116E+00	 0.000E+00	 0.000E+00	 5.270E+01	 1.162E+01	 1.106E+03	 2.257E-01	-4.265E-02	 0.000E+00	 5.819E+02	 3.043E+03	 2.734E+02	-1.880E+02	 4.551E+02	 4.721E+03	 1.038E+04	-8.658E+01	 3.900E+03	-9.772E+02	 1.115E+03	 4.839E+02	-2.446E+00	-3.475E+03	 3.889E+03	 6.826E+02	-3.878E+02	 3.442E+02	 5.369E+00	-6.884E+03	 3.669E+03	 3.564E+04	-3.850E+02
   0.750	 1.128E+01	 1.869E+00	-2.041E-01	 4.634E+03	 4.239E+01	 6.205E+00	-1.142E+00	 0.000E+00	 0.000E+00	 5.358E+01	 1.163E+01	 1.106E+03	 2.350E-01	-4.357E-02	 0.000E+00	 6.399E+02	 3.025E+03	 2.759E+02	-1.883E+02	 4.575E+02	 4.830E+03	 1.041E+04	-9.300E+01	 4.164E+03	-8.668E+02	 1.156E+03	 4.978E+02	-7.585E+00	-3.471E+03	 4.170E+03	 7.558E+02	-2.822E+02	 3.629E+02	 2.437E+01	-6.880E+03	 3.186E+03	 3.724E+04	-2.792E+02
   0.762	 1.132E+01	 1.896E+00	-1.561E-01	 4.615E+03	 4.220E+01	 6.156E+00	-1.164E+00	 0.000E+00	 0.000E+00	 5.445E+01	 1.165E+01	 1.106E+03	 2.445E-01	-4.450E-02	 0.000E+00	 6.909E+02	 3.003E+03	 2.776E+02	-1.891E+02	 4.598E+02	 4.932E+03	 1.042E+04	-9.629E+01	 4.441E+03	-7.618E+02	 1.197E+03	 5.112E+02	-1.181E+01	-3.467E+03	 4.462E+03	 8.194E+02	-1.830E+02	 3.833E+02	 4.227E+01	-6.876E+03	 2.732E+03	 3.889E+04	-1.797E+02
   0.775	 1.136E+01	 1.923E+00	-1.082E-01	 4.599E+03	 4.202E+01	 6.107E+00	-1.184E+00	 0.000E+00	 0.000E+00	 5.532E+01	 1.167E+01	 1.107E+03	 2.540E-01	-4.545E-02	 0.000E+00	 7.322E+02	 2.982E+03	 2.799E+02	-1.909E+02	 4.620E+02	 5.036E+03	 1.044E+04	-1.005E+02	 4.727E+03	-6.426E+02	 1.225E+03	 5.235E+02	-1.495E+01	-3.464E+03	 4.760E+03	 8.920E+02	-8.834E+01	 4.058E+02	 5.848E+01	-6.873E+03	 2.324E+03	 4.061E+04	-8.475E+01
   0.788	 1.140E+01	 1.949E+00	-6.030E-02	 4.587E+03	 4.183E+01	 6.055E+00	-1.199E+00	 0.000E+00	 0.000E+00	 5.620E+01	 1.169E+01	 1.109E+03	 2.637E-01	-4.642E-02	 0.000E+00	 7.649E+02	 2.961E+03	 2.805E+02	-1.930E+02	 4.644E+02	 5.126E+03	 1.044E+04	-1.032E+02	 5.016E+03	-5.424E+02	 1.256E+03	 5.358E+02	-1.691E+01	-3.461E+03	 5.058E+03	 9.486E+02	-1.012E+00	 4.294E+02	 7.262E+01	-6.870E+03	 1.973E+03	 4.238E+04	 2.889E+00
   0.800	 1.143E+01	 1.976E+00	-1.238E-02	 4.577E+03	 4.164E+01	 6.003E+00	-1.210E+00	 0.000E+00	 0.000E+00	 5.708E+01	 1.171E+01	 1.112E+03	 2.734E-01	-4.741E-02	 0.000E+00	 7.865E+02	 2.938E+03	 2.821E+02	-1.962E+02	 4.661E+02	 5.219E+03	 1.044E+04	-1.051E+02	 5.300E+03	-4.231E+02	 1.269E+03	 5.470E+02	-1.785E+01	-3.459E+03	 5.349E+03	 1.020E+03	 7.215E+01	 4.547E+02	 8.441E+01	-6.868E+03	 1.690E+03	 4.420E+04	 7.638E+01
   0.812	 1.144E+01	 2.035E+00	 4.612E-04	 4.569E+03	 4.145E+01	 5.951E+00	-1.217E+00	 0.000E+00	 0.000E+00	 5.796E+01	 1.173E+01	 1.115E+03	 2.832E-01	-4.842E-02	 0.000E+00	 8.001E+02	 2.917E+03	 2.837E+02	-1.999E+02	 4.679E+02	 5.298E+03	 1.044E+04	-1.055E+02	 5.572E+03	-3.014E+02	 1.272E+03	 5.577E+02	-1.788E+01	-3.456E+03	 5.626E+03	 1.095E+03	 1.417E+02	 4.810E+02	 9.370E+01	-6.866E+03	 1.481E+03	 4.605E+04	 1.463E+02
   0.825	 1.146E+01	 2.093E+00	 1.330E-02	 4.564E+03	 4.127E+01	 5.900E+00	-1.221E+00	 0.000E+00	 0.000E+00	 5.884E+01	 1.176E+01	 1.119E+03	 2.931E-01	-4.946E-02	 0.000E+00	 8.037E+02	 2.893E+03	 2.845E+02	-2.039E+02	 4.694E+02	 5.370E+03	 1.043E+04	-1.053E+02	 5.821E+03	-1.857E+02	 1.274E+03	 5.685E+02	-1.730E+01	-3.455E+03	 5.878E+03	 1.164E+03	 2.062E+02	 5.075E+02	 1.006E+02	-6.865E+03	 1.347E+03	 4.793E+04	 2.111E+02
   0.838	 1.147E+01	 2.152E+00	 2.614E-02	 4.562E+03	 4.108E+01	 5.849E+00	-1.220E+00	 0.000E+00	 0.000E+00	 5.972E+01	 1.177E+01	 1.123E+03	 3.031E-01	-5.053E-02	 0.000E+00	 8.001E+02	 2.871E+03	 2.839E+02	-2.076E+02	 4.709E+02	 5.425E+03	 1.039E+04	-1.055E+02	 6.039E+03	-6.817E+01	 1.268E+03	 5.790E+02	-1.644E+01	-3.453E+03	 6.099E+03	 1.237E+03	 2.735E+02	 5.341E+02	 1.051E+02	-6.863E+03	 1.287E+03	 4.981E+04	 2.788E+02
   0.850	 1.148E+01	 2.210E+00	 3.898E-02	 4.561E+03	 4.089E+01	 5.800E+00	-1.217E+00	 0.000E+00	 0.000E+00	 6.060E+01	 1.179E+01	 1.128E+03	 3.132E-01	-5.164E-02	 0.000E+00	 7.909E+02	 2.847E+03	 2.840E+02	-2.114E+02	 4.725E+02	 5.467E+03	 1.036E+04	-1.039E+02	 6.214E+03	 4.320E+01	 1.264E+03	 5.904E+02	-1.568E+01	-3.452E+03	 6.279E+03	 1.303E+03	 3.473E+02	 5.602E+02	 1.075E+02	-6.862E+03	 1.300E+03	 5.169E+04	 3.529E+02
   0.863	 1.145E+01	 2.207E+00	 1.102E-01	 4.562E+03	 4.070E+01	 5.751E+00	-1.210E+00	 0.000E+00	 0.000E+00	 6.149E+01	 1.180E+01	 1.134E+03	 3.232E-01	-5.278E-02	 0.000E+00	 7.775E+02	 2.823E+03	 2.837E+02	-2.145E+02	 4.742E+02	 5.491E+03	 1.031E+04	-1.016E+02	 6.341E+03	 1.527E+02	 1.265E+03	 6.024E+02	-1.534E+01	-3.452E+03	 6.411E+03	 1.362E+03	 4.286E+02	 5.853E+02	 1.080E+02	-6.862E+03	 1.380E+03	 5.355E+04	 4.345E+02
   0.875	 1.143E+01	 2.204E+00	 1.813E-01	 4.563E+03	 4.052E+01	 5.704E+00	-1.201E+00	 0.000E+00	 0.000E+00	 6.237E+01	 1.181E+01	 1.139E+03	 3.334E-01	-5.396E-02	 0.000E+00	 7.616E+02	 2.799E+03	 2.831E+02	-2.170E+02	 4.761E+02	 5.496E+03	 1.026E+04	-9.930E+01	 6.413E+03	 2.579E+02	 1.256E+03	 6.149E+02	-1.576E+01	-3.451E+03	 6.490E+03	 1.426E+03	 5.189E+02	 6.096E+02	 1.068E+02	-6.862E+03	 1.525E+03	 5.539E+04	 5.250E+02
   0.887	 1.140E+01	 2.201E+00	 2.525E-01	 4.565E+03	 4.033E+01	 5.658E+00	-1.190E+00	 0.000E+00	 0.000E+00	 6.326E+01	 1.182E+01	 1.145E+03	 3.435E-01	-5.518E-02	 0.000E+00	 7.441E+02	 2.774E+03	 2.827E+02	-2.186E+02	 4.782E+02	 5.483E+03	 1.020E+04	-9.500E+01	 6.424E+03	 3.572E+02	 1.253E+03	 6.284E+02	-1.715E+01	-3.451E+03	 6.512E+03	 1.483E+03	 6.125E+02	 6.324E+02	 1.040E+02	-6.862E+03	 1.731E+03	 5.719E+04	 6.189E+02
   0.900	 1.137E+01	 2.197E+00	 3.237E-01	 4.567E+03	 4.014E+01	 5.614E+00	-1.177E+00	 0.000E+00	 0.000E+00	 6.415E+01	 1.182E+01	 1.151E+03	 3.537E-01	-5.644E-02	 0.000E+00	 7.263E+02	 2.751E+03	 2.815E+02	-2.191E+02	 4.805E+02	 5.447E+03	 1.012E+04	-9.240E+01	 6.373E+03	 4.498E+02	 1.241E+03	 6.425E+02	-1.962E+01	-3.452E+03	 6.474E+03	 1.544E+03	 7.074E+02	 6.539E+02	 9.989E+01	-6.863E+03	 1.994E+03	 5.896E+04	 7.140E+02
   0.913	 1.140E+01	 2.073E+00	 2.389E-01	 4.568E+03	 3.995E+01	 5.571E+00	-1.162E+00	 0.000E+00	 0.000E+00	 6.503E+01	 1.183E+01	 1.156E+03	 3.639E-01	-5.774E-02	 0.000E+00	 7.078E+02	 2.730E+03	 2.789E+02	-2.184E+02	 4.834E+02	 5.389E+03	 1.002E+04	-9.216E+01	 6.261E+03	 5.215E+02	 1.216E+03	 6.571E+02	-2.326E+01	-3.452E+03	 6.376E+03	 1.610E+03	 7.948E+02	 6.740E+02	 9.445E+01	-6.863E+03	 2.313E+03	 6.070E+04	 8.015E+02
   0.925	 1.144E+01	 1.948E+00	 1.541E-01	 4.567E+03	 3.977E+01	 5.529E+00	-1.146E+00	 0.000E+00	 0.000E+00	 6.592E+01	 1.183E+01	 1.162E+03	 3.741E-01	-5.908E-02	 0.000E+00	 6.903E+02	 2.708E+03	 2.768E+02	-2.166E+02	 4.858E+02	 5.313E+03	 9.923E+03	-8.953E+01	 6.091E+03	 5.911E+02	 1.199E+03	 6.729E+02	-2.790E+01	-3.453E+03	 6.222E+03	 1.668E+03	 8.643E+02	 6.925E+02	 8.768E+01	-6.864E+03	 2.687E+03	 6.238E+04	 8.711E+02
   0.938	 1.147E+01	 1.823E+00	 6.930E-02	 4.565E+03	 3.958E+01	 5.489E+00	-1.128E+00	 0.000E+00	 0.000E+00	 6.681E+01	 1.184E+01	 1.167E+03	 3.843E-01	-6.046E-02	 0.000E+00	 6.717E+02	 2.688E+03	 2.746E+02	-2.142E+02	 4.884E+02	 5.223E+03	 9.815E+03	-9.003E+01	 5.869E+03	 6.471E+02	 1.175E+03	 6.893E+02	-3.336E+01	-3.454E+03	 6.016E+03	 1.726E+03	 9.177E+02	 7.097E+02	 7.946E+01	-6.866E+03	 3.118E+03	 6.404E+04	 9.246E+02
   0.950	 1.151E+01	 1.698E+00	-1.549E-02	 4.560E+03	 3.939E+01	 5.449E+00	-1.109E+00	 0.000E+00	 0.000E+00	 6.770E+01	 1.184E+01	 1.171E+03	 3.945E-01	-6.187E-02	 0.000E+00	 6.532E+02	 2.667E+03	 2.717E+02	-2.107E+02	 4.908E+02	 5.113E+03	 9.699E+03	-8.728E+01	 5.602E+03	 6.893E+02	 1.153E+03	 7.065E+02	-3.934E+01	-3.455E+03	 5.765E+03	 1.779E+03	 9.481E+02	 7.256E+02	 6.967E+01	-6.867E+03	 3.608E+03	 6.565E+04	 9.550E+02
   0.963	 1.148E+01	 1.692E+00	-7.324E-02	 4.553E+03	 3.920E+01	 5.410E+00	-1.088E+00	 0.000E+00	 0.000E+00	 6.858E+01	 1.185E+01	 1.175E+03	 4.046E-01	-6.332E-02	 0.000E+00	 6.313E+02	 2.647E+03	 2.691E+02	-2.072E+02	 4.930E+02	 5.000E+03	 9.586E+03	-8.500E+01	 5.298E+03	 7.352E+02	 1.128E+03	 7.238E+02	-4.545E+01	-3.458E+03	 5.477E+03	 1.834E+03	 9.622E+02	 7.407E+02	 5.810E+01	-6.870E+03	 4.159E+03	 6.724E+04	 9.690E+02
   0.975	 1.145E+01	 1.686E+00	-1.310E-01	 4.544E+03	 3.902E+01	 5.372E+00	-1.066E+00	 0.000E+00	 0.000E+00	 6.947E+01	 1.186E+01	 1.178E+03	 4.147E-01	-6.480E-02	 0.000E+00	 6.085E+02	 2.627E+03	 2.657E+02	-2.030E+02	 4.956E+02	 4.869E+03	 9.461E+03	-8.183E+01	 4.969E+03	 7.559E+02	 1.107E+03	 7.418E+02	-5.134E+01	-3.459E+03	 5.162E+03	 1.881E+03	 9.694E+02	 7.549E+02	 4.461E+01	-6.872E+03	 4.773E+03	 6.879E+04	 9.762E+02
   0.988	 1.143E+01	 1.680E+00	-1.887E-01	 4.566E+03	 3.914E+01	 5.333E+00	-1.041E+00	 0.000E+00	 0.000E+00	 7.036E+01	 1.187E+01	 1.180E+03	 4.247E-01	-6.630E-02	 0.000E+00	 5.812E+02	 2.606E+03	 2.625E+02	-1.990E+02	 4.982E+02	 4.736E+03	 9.336E+03	-7.881E+01	 4.623E+03	 7.723E+02	 1.092E+03	 7.601E+02	-5.660E+01	-3.462E+03	 4.829E+03	 1.919E+03	 9.685E+02	 7.687E+02	 2.909E+01	-6.875E+03	 5.449E+03	 7.033E+04	 9.752E+02
   1.000	 1.140E+01	 1.674E+00	-2.465E-01	 4.594E+03	 3.932E+01	 5.294E+00	-1.016E+00	 0.000E+00	 0.000E+00	 7.125E+01	 1.188E+01	 1.182E+03	 4.346E-01	-6.783E-02	 0.000E+00	 5.506E+02	 2.585E+03	 2.592E+02	-1.951E+02	 5.012E+02	 4.597E+03	 9.210E+03	-7.495E+01	 4.273E+03	 7.804E+02	 1.074E+03	 7.781E+02	-6.091E+01	-3.464E+03	 4.490E+03	 1.957E+03	 9.716E+02	 7.827E+02	 1.146E+01	-6.877E+03	 6.185E+03	 7.187E+04	 9.782E+02
   1.013	 1.143E+01	 1.730E+00	-2.055E-01	 4.618E+03	 3.951E+01	 5.255E+00	-9.881E-01	 0.000E+00	 0.000E+00	 7.214E+01	 1.189E+01	 1.182E+03	 4.445E-01	-6.937E-02	 0.000E+00	 5.146E+02	 2.564E+03	 2.561E+02	-1.920E+02	 5.043E+02	 4.461E+03	 9.087E+03	-7.050E+01	 3.927E+03	 7.907E+02	 1.053E+03	 7.955E+02	-6.405E+01	-3.466E+03	 4.153E+03	 1.997E+03	 9.741E+02	 7.973E+02	-8.131E+00	-6.879E+03	 6.976E+03	 7.341E+04	 9.806E+02
   1.025	 1.145E+01	 1.787E+00	-1.645E-01	 4.640E+03	 3.970E+01	 5.215E+00	-9.592E-01	 0.000E+00	 0.000E+00	 7.304E+01	 1.189E+01	 1.182E+03	 4.543E-01	-7.093E-02	 0.000E+00	 4.743E+02	 2.541E+03	 2.531E+02	-1.893E+02	 5.077E+02	 4.326E+03	 8.969E+03	-6.583E+01	 3.594E+03	 7.923E+02	 1.039E+03	 8.127E+02	-6.590E+01	-3.468E+03	 3.826E+03	 2.026E+03	 9.807E+02	 8.124E+02	-2.945E+01	-6.882E+03	 7.812E+03	 7.496E+04	 9.871E+02
   1.038	 1.147E+01	 1.843E+00	-1.235E-01	 4.658E+03	 3.989E+01	 5.174E+00	-9.290E-01	 0.000E+00	 0.000E+00	 7.393E+01	 1.190E+01	 1.181E+03	 4.639E-01	-7.250E-02	 0.000E+00	 4.292E+02	 2.517E+03	 2.497E+02	-1.874E+02	 5.113E+02	 4.196E+03	 8.849E+03	-6.075E+01	 3.280E+03	 7.850E+02	 1.043E+03	 8.298E+02	-6.648E+01	-3.469E+03	 3.515E+03	 2.036E+03	 9.844E+02	 8.280E+02	-5.206E+01	-6.884E+03	 8.679E+03	 7.651E+04	 9.907E+02
   1.050	 1.149E+01	 1.900E+00	-8.254E-02	 4.673E+03	 4.007E+01	 5.132E+00	-8.981E-01	 0.000E+00	 0.000E+00	 7.482E+01	 1.190E+01	 1.180E+03	 4.735E-01	-7.407E-02	 0.000E+00	 3.805E+02	 2.493E+03	 2.471E+02	-1.862E+02	 5.148E+02	 4.074E+03	 8.744E+03	-5.546E+01	 2.990E+03	 7.808E+02	 1.031E+03	 8.455E+02	-6.596E+01	-3.471E+03	 3.225E+03	 2.057E+03	 9.825E+02	 8.454E+02	-7.545E+01	-6.886E+03	 9.563E+03	 7.809E+04	 9.887E+02
   1.062	 1.146E+01	 1.877E+00	-1.029E-01	 4.685E+03	 4.026E+01	 5.088E+00	-8.669E-01	 0.000E+00	 0.000E+00	 7.571E+01	 1.190E+01	 1.177E+03	 4.829E-01	-7.563E-02	 0.000E+00	 3.289E+02	 2.471E+03	 2.445E+02	-1.861E+02	 5.182E+02	 3.962E+03	 8.641E+03	-5.048E+01	 2.728E+03	 7.800E+02	 1.016E+03	 8.600E+02	-6.459E+01	-3.473E+03	 2.961E+03	 2.078E+03	 9.706E+02	 8.641E+02	-9.897E+01	-6.888E+03	 1.044E+04	 7.969E+04	 9.769E+02
   1.075	 1.143E+01	 1.853E+00	-1.233E-01	 4.695E+03	 4.045E+01	 5.042E+00	-8.361E-01	 0.000E+00	 0.000E+00	 7.661E+01	 1.190E+01	 1.174E+03	 4.922E-01	-7.720E-02	 0.000E+00	 2.767E+02	 2.445E+03	 2.425E+02	-1.863E+02	 5.215E+02	 3.860E+03	 8.553E+03	-4.507E+01	 2.494E+03	 7.699E+02	 1.004E+03	 8.737E+02	-6.271E+01	-3.475E+03	 2.722E+03	 2.090E+03	 9.481E+02	 8.843E+02	-1.219E+02	-6.890E+03	 1.130E+04	 8.132E+04	 9.543E+02
   1.087	 1.139E+01	 1.830E+00	-1.436E-01	 4.702E+03	 4.064E+01	 4.996E+00	-8.063E-01	 0.000E+00	 0.000E+00	 7.750E+01	 1.189E+01	 1.171E+03	 5.013E-01	-7.876E-02	 0.000E+00	 2.257E+02	 2.421E+03	 2.400E+02	-1.868E+02	 5.250E+02	 3.764E+03	 8.468E+03	-3.964E+01	 2.289E+03	 7.485E+02	 1.002E+03	 8.869E+02	-6.067E+01	-3.476E+03	 2.512E+03	 2.091E+03	 9.112E+02	 9.055E+02	-1.434E+02	-6.892E+03	 1.211E+04	 8.296E+04	 9.174E+02
   1.100	 1.136E+01	 1.807E+00	-1.640E-01	 4.708E+03	 4.082E+01	 4.947E+00	-7.782E-01	 0.000E+00	 0.000E+00	 7.839E+01	 1.187E+01	 1.167E+03	 5.103E-01	-8.030E-02	 0.000E+00	 1.767E+02	 2.395E+03	 2.384E+02	-1.878E+02	 5.280E+02	 3.683E+03	 8.398E+03	-3.477E+01	 2.113E+03	 7.329E+02	 9.921E+02	 8.988E+02	-5.890E+01	-3.478E+03	 2.329E+03	 2.096E+03	 8.600E+02	 9.281E+02	-1.629E+02	-6.894E+03	 1.286E+04	 8.462E+04	 8.662E+02
   1.113	 1.134E+01	 1.696E+00	-1.678E-01	 4.711E+03	 4.101E+01	 4.897E+00	-7.525E-01	 0.000E+00	 0.000E+00	 7.928E+01	 1.185E+01	 1.162E+03	 5.191E-01	-8.183E-02	 0.000E+00	 1.329E+02	 2.371E+03	 2.369E+02	-1.889E+02	 5.313E+02	 3.611E+03	 8.335E+03	-3.061E+01	 1.965E+03	 7.113E+02	 9.733E+02	 9.095E+02	-5.772E+01	-3.479E+03	 2.175E+03	 2.107E+03	 8.004E+02	 9.520E+02	-1.796E+02	-6.895E+03	 1.352E+04	 8.629E+04	 8.066E+02
   1.125	 1.132E+01	 1.586E+00	-1.717E-01	 4.702E+03	 4.110E+01	 4.846E+00	-7.298E-01	 0.000E+00	 0.000E+00	 8.017E+01	 1.182E+01	 1.157E+03	 5.277E-01	-8.334E-02	 0.000E+00	 9.477E+01	 2.345E+03	 2.360E+02	-1.900E+02	 5.342E+02	 3.553E+03	 8.286E+03	-2.695E+01	 1.845E+03	 6.951E+02	 9.679E+02	 9.200E+02	-5.743E+01	-3.481E+03	 2.050E+03	 2.104E+03	 7.312E+02	 9.762E+02	-1.931E+02	-6.897E+03	 1.409E+04	 8.795E+04	 7.374E+02
   1.138	 1.130E+01	 1.475E+00	-1.756E-01	 4.683E+03	 4.111E+01	 4.793E+00	-7.108E-01	 0.000E+00	 0.000E+00	 8.105E+01	 1.179E+01	 1.152E+03	 5.362E-01	-8.482E-02	 0.000E+00	 6.519E+01	 2.316E+03	 2.363E+02	-1.910E+02	 5.373E+02	 3.508E+03	 8.261E+03	-2.252E+01	 1.751E+03	 6.821E+02	 9.734E+02	 9.305E+02	-5.821E+01	-3.482E+03	 1.953E+03	 2.092E+03	 6.654E+02	 1.000E+03	-2.030E+02	-6.899E+03	 1.455E+04	 8.960E+04	 6.717E+02
   1.150	 1.128E+01	 1.365E+00	-1.794E-01	 4.658E+03	 4.108E+01	 4.740E+00	-6.957E-01	 0.000E+00	 0.000E+00	 8.194E+01	 1.176E+01	 1.147E+03	 5.444E-01	-8.628E-02	 0.000E+00	 4.387E+01	 2.290E+03	 2.363E+02	-1.917E+02	 5.405E+02	 3.474E+03	 8.232E+03	-2.055E+01	 1.684E+03	 6.747E+02	 9.755E+02	 9.402E+02	-6.019E+01	-3.483E+03	 1.885E+03	 2.084E+03	 6.054E+02	 1.025E+03	-2.091E+02	-6.900E+03	 1.490E+04	 9.122E+04	 6.118E+02
   1.163	 1.127E+01	 1.301E+00	-2.318E-01	 4.628E+03	 4.101E+01	 4.686E+00	-6.851E-01	 0.000E+00	 0.000E+00	 8.282E+01	 1.173E+01	 1.142E+03	 5.525E-01	-8.770E-02	 0.000E+00	 3.266E+01	 2.262E+03	 2.370E+02	-1.920E+02	 5.441E+02	 3.453E+03	 8.217E+03	-2.001E+01	 1.643E+03	 6.727E+02	 9.669E+02	 9.494E+02	-6.337E+01	-3.484E+03	 1.846E+03	 2.087E+03	 5.592E+02	 1.049E+03	-2.114E+02	-6.901E+03	 1.513E+04	 9.281E+04	 5.657E+02
   1.175	 1.126E+01	 1.238E+00	-2.842E-01	 4.594E+03	 4.089E+01	 4.631E+00	-6.788E-01	 0.000E+00	 0.000E+00	 8.370E+01	 1.170E+01	 1.136E+03	 5.604E-01	-8.908E-02	 0.000E+00	 3.131E+01	 2.236E+03	 2.379E+02	-1.920E+02	 5.478E+02	 3.444E+03	 8.204E+03	-1.988E+01	 1.629E+03	 6.796E+02	 9.777E+02	 9.592E+02	-6.760E+01	-3.484E+03	 1.837E+03	 2.076E+03	 5.268E+02	 1.071E+03	-2.100E+02	-6.902E+03	 1.525E+04	 9.434E+04	 5.335E+02
   1.188	 1.126E+01	 1.175E+00	-3.366E-01	 4.555E+03	 4.074E+01	 4.577E+00	-6.771E-01	 0.000E+00	 0.000E+00	 8.457E+01	 1.167E+01	 1.131E+03	 5.681E-01	-9.042E-02	 0.000E+00	 4.030E+01	 2.212E+03	 2.381E+02	-1.912E+02	 5.524E+02	 3.443E+03	 8.186E+03	-2.286E+01	 1.644E+03	 6.724E+02	 9.768E+02	 9.686E+02	-7.275E+01	-3.483E+03	 1.858E+03	 2.078E+03	 5.094E+02	 1.093E+03	-2.051E+02	-6.901E+03	 1.527E+04	 9.582E+04	 5.161E+02
   1.200	 1.125E+01	 1.112E+00	-3.890E-01	 4.513E+03	 4.055E+01	 4.523E+00	-6.798E-01	 0.000E+00	 0.000E+00	 8.545E+01	 1.164E+01	 1.126E+03	 5.756E-01	-9.171E-02	 0.000E+00	 5.825E+01	 2.187E+03	 2.396E+02	-1.905E+02	 5.564E+02	 3.459E+03	 8.184E+03	-2.437E+01	 1.687E+03	 6.882E+02	 9.953E+02	 9.790E+02	-7.848E+01	-3.483E+03	 1.911E+03	 2.066E+03	 4.911E+02	 1.112E+03	-1.974E+02	-6.902E+03	 1.519E+04	 9.722E+04	 4.981E+02
   1.212	 1.121E+01	 1.072E+00	-3.631E-01	 4.471E+03	 4.036E+01	 4.470E+00	-6.865E-01	 0.000E+00	 0.000E+00	 8.632E+01	 1.162E+01	 1.121E+03	 5.829E-01	-9.295E-02	 0.000E+00	 8.462E+01	 2.165E+03	 2.418E+02	-1.897E+02	 5.607E+02	 3.490E+03	 8.191E+03	-2.736E+01	 1.762E+03	 7.049E+02	 9.935E+02	 9.892E+02	-8.445E+01	-3.483E+03	 1.995E+03	 2.076E+03	 4.796E+02	 1.131E+03	-1.873E+02	-6.901E+03	 1.504E+04	 9.856E+04	 4.867E+02
   1.225	 1.118E+01	 1.033E+00	-3.372E-01	 4.432E+03	 4.018E+01	 4.419E+00	-6.970E-01	 0.000E+00	 0.000E+00	 8.719E+01	 1.160E+01	 1.116E+03	 5.900E-01	-9.414E-02	 0.000E+00	 1.178E+02	 2.142E+03	 2.434E+02	-1.888E+02	 5.647E+02	 3.533E+03	 8.193E+03	-3.007E+01	 1.871E+03	 7.221E+02	 1.020E+03	 1.001E+03	-9.027E+01	-3.482E+03	 2.111E+03	 2.064E+03	 4.580E+02	 1.146E+03	-1.755E+02	-6.901E+03	 1.483E+04	 9.980E+04	 4.654E+02
   1.238	 1.115E+01	 9.931E-01	-3.113E-01	 4.393E+03	 3.999E+01	 4.370E+00	-7.106E-01	 0.000E+00	 0.000E+00	 8.806E+01	 1.158E+01	 1.111E+03	 5.968E-01	-9.527E-02	 0.000E+00	 1.569E+02	 2.121E+03	 2.459E+02	-1.880E+02	 5.688E+02	 3.589E+03	 8.202E+03	-3.168E+01	 2.012E+03	 7.326E+02	 1.050E+03	 1.013E+03	-9.556E+01	-3.481E+03	 2.259E+03	 2.053E+03	 4.310E+02	 1.159E+03	-1.626E+02	-6.900E+03	 1.457E+04	 1.009E+05	 4.387E+02
   1.250	 1.111E+01	 9.536E-01	-2.854E-01	 4.356E+03	 3.980E+01	 4.324E+00	-7.269E-01	 0.000E+00	 0.000E+00	 8.893E+01	 1.157E+01	 1.107E+03	 6.035E-01	-9.633E-02	 0.000E+00	 1.992E+02	 2.101E+03	 2.472E+02	-1.875E+02	 5.725E+02	 3.658E+03	 8.200E+03	-3.507E+01	 2.189E+03	 7.438E+02	 1.083E+03	 1.026E+03	-9.993E+01	-3.479E+03	 2.439E+03	 2.043E+03	 3.906E+02	 1.170E+03	-1.495E+02	-6.899E+03	 1.429E+04	 1.020E+05	 3.986E+02
   1.263	 1.107E+01	 9.696E-01	-3.312E-01	 4.322E+03	 3.961E+01	 4.280E+00	-7.453E-01	 0.000E+00	 0.000E+00	 8.979E+01	 1.156E+01	 1.104E+03	 6.099E-01	-9.734E-02	 0.000E+00	 2.441E+02	 2.084E+03	 2.485E+02	-1.873E+02	 5.762E+02	 3.738E+03	 8.191E+03	-3.901E+01	 2.399E+03	 7.448E+02	 1.111E+03	 1.039E+03	-1.031E+02	-3.478E+03	 2.649E+03	 2.040E+03	 3.406E+02	 1.179E+03	-1.365E+02	-6.898E+03	 1.400E+04	 1.030E+05	 3.489E+02
   1.275	 1.104E+01	 9.855E-01	-3.769E-01	 4.290E+03	 3.943E+01	 4.239E+00	-7.653E-01	 0.000E+00	 0.000E+00	 9.066E+01	 1.156E+01	 1.101E+03	 6.161E-01	-9.828E-02	 0.000E+00	 2.896E+02	 2.067E+03	 2.493E+02	-1.876E+02	 5.795E+02	 3.830E+03	 8.181E+03	-4.259E+01	 2.640E+03	 7.450E+02	 1.148E+03	 1.053E+03	-1.049E+02	-3.476E+03	 2.887E+03	 2.033E+03	 2.770E+02	 1.186E+03	-1.244E+02	-6.896E+03	 1.372E+04	 1.039E+05	 2.858E+02
   1.288	 1.100E+01	 1.001E+00	-4.227E-01	 4.260E+03	 3.924E+01	 4.201E+00	-7.863E-01	 0.000E+00	 0.000E+00	 9.153E+01	 1.156E+01	 1.098E+03	 6.221E-01	-9.915E-02	 0.000E+00	 3.349E+02	 2.051E+03	 2.497E+02	-1.884E+02	 5.825E+02	 3.931E+03	 8.163E+03	-4.646E+01	 2.909E+03	 7.363E+02	 1.173E+03	 1.066E+03	-1.051E+02	-3.473E+03	 3.148E+03	 2.039E+03	 2.061E+02	 1.192E+03	-1.134E+02	-6.894E+03	 1.345E+04	 1.048E+05	 2.153E+02
   1.300	 1.096E+01	 1.017E+00	-4.685E-01	 4.233E+03	 3.905E+01	 4.167E+00	-8.079E-01	 0.000E+00	 0.000E+00	 9.239E+01	 1.156E+01	 1.096E+03	 6.278E-01	-9.995E-02	 0.000E+00	 3.789E+02	 2.037E+03	 2.501E+02	-1.898E+02	 5.853E+02	 4.041E+03	 8.143E+03	-4.992E+01	 3.201E+03	 7.240E+02	 1.212E+03	 1.079E+03	-1.039E+02	-3.470E+03	 3.428E+03	 2.035E+03	 1.275E+02	 1.196E+03	-1.038E+02	-6.891E+03	 1.321E+04	 1.055E+05	 1.372E+02
   1.312	 1.099E+01	 9.725E-01	-4.938E-01	 4.209E+03	 3.886E+01	 4.136E+00	-8.297E-01	 0.000E+00	 0.000E+00	 9.326E+01	 1.156E+01	 1.095E+03	 6.333E-01	-1.007E-01	 0.000E+00	 4.212E+02	 2.022E+03	 2.490E+02	-1.911E+02	 5.881E+02	 4.152E+03	 8.109E+03	-5.433E+01	 3.508E+03	 6.999E+02	 1.243E+03	 1.092E+03	-1.012E+02	-3.467E+03	 3.720E+03	 2.041E+03	 4.560E+01	 1.200E+03	-9.573E+01	-6.888E+03	 1.300E+04	 1.063E+05	 5.581E+01
   1.325	 1.102E+01	 9.276E-01	-5.191E-01	 4.188E+03	 3.868E+01	 4.108E+00	-8.513E-01	 0.000E+00	 0.000E+00	 9.413E+01	 1.157E+01	 1.095E+03	 6.386E-01	-1.013E-01	 0.000E+00	 4.612E+02	 2.011E+03	 2.487E+02	-1.934E+02	 5.906E+02	 4.272E+03	 8.079E+03	-5.750E+01	 3.823E+03	 6.730E+02	 1.281E+03	 1.105E+03	-9.742E+01	-3.464E+03	 4.019E+03	 2.039E+03	-4.117E+01	 1.203E+03	-8.912E+01	-6.886E+03	 1.282E+04	 1.070E+05	-3.044E+01
   1.337	 1.105E+01	 8.827E-01	-5.444E-01	 4.169E+03	 3.849E+01	 4.084E+00	-8.724E-01	 0.000E+00	 0.000E+00	 9.500E+01	 1.157E+01	 1.096E+03	 6.436E-01	-1.019E-01	 0.000E+00	 4.991E+02	 2.000E+03	 2.484E+02	-1.959E+02	 5.928E+02	 4.392E+03	 8.048E+03	-6.163E+01	 4.138E+03	 6.492E+02	 1.319E+03	 1.117E+03	-9.281E+01	-3.461E+03	 4.315E+03	 2.037E+03	-1.298E+02	 1.206E+03	-8.381E+01	-6.883E+03	 1.266E+04	 1.076E+05	-1.185E+02
   1.350	 1.108E+01	 8.377E-01	-5.697E-01	 4.154E+03	 3.830E+01	 4.063E+00	-8.927E-01	 0.000E+00	 0.000E+00	 9.586E+01	 1.158E+01	 1.097E+03	 6.484E-01	-1.025E-01	 0.000E+00	 5.345E+02	 1.991E+03	 2.477E+02	-1.986E+02	 5.951E+02	 4.509E+03	 8.006E+03	-6.446E+01	 4.445E+03	 6.054E+02	 1.354E+03	 1.128E+03	-8.777E+01	-3.458E+03	 4.602E+03	 2.037E+03	-2.185E+02	 1.210E+03	-7.959E+01	-6.880E+03	 1.253E+04	 1.083E+05	-2.068E+02
   1.363	 1.105E+01	 9.186E-01	-5.318E-01	 4.141E+03	 3.811E+01	 4.046E+00	-9.122E-01	 0.000E+00	 0.000E+00	 9.673E+01	 1.159E+01	 1.099E+03	 6.529E-01	-1.029E-01	 0.000E+00	 5.681E+02	 1.984E+03	 2.473E+02	-2.013E+02	 5.971E+02	 4.623E+03	 7.963E+03	-6.641E+01	 4.734E+03	 5.564E+02	 1.391E+03	 1.138E+03	-8.273E+01	-3.456E+03	 4.870E+03	 2.034E+03	-3.137E+02	 1.214E+03	-7.611E+01	-6.878E+03	 1.242E+04	 1.089E+05	-3.015E+02
   1.375	 1.102E+01	 9.995E-01	-4.939E-01	 4.131E+03	 3.793E+01	 4.031E+00	-9.305E-01	 0.000E+00	 0.000E+00	 9.760E+01	 1.159E+01	 1.102E+03	 6.571E-01	-1.033E-01	 0.000E+00	 5.991E+02	 1.978E+03	 2.460E+02	-2.038E+02	 5.991E+02	 4.727E+03	 7.911E+03	-6.890E+01	 4.998E+03	 4.915E+02	 1.421E+03	 1.146E+03	-7.807E+01	-3.453E+03	 5.114E+03	 2.037E+03	-4.124E+02	 1.219E+03	-7.310E+01	-6.875E+03	 1.232E+04	 1.095E+05	-3.997E+02
   1.388	 1.100E+01	 1.080E+00	-4.560E-01	 4.123E+03	 3.774E+01	 4.019E+00	-9.475E-01	 0.000E+00	 0.000E+00	 9.847E+01	 1.160E+01	 1.105E+03	 6.611E-01	-1.037E-01	 0.000E+00	 6.283E+02	 1.976E+03	 2.429E+02	-2.054E+02	 6.013E+02	 4.816E+03	 7.831E+03	-7.455E+01	 5.228E+03	 3.938E+02	 1.437E+03	 1.153E+03	-7.426E+01	-3.449E+03	 5.325E+03	 2.056E+03	-5.236E+02	 1.227E+03	-7.021E+01	-6.872E+03	 1.222E+04	 1.102E+05	-5.106E+02
   1.400	 1.097E+01	 1.161E+00	-4.181E-01	 4.117E+03	 3.755E+01	 4.008E+00	-9.629E-01	 0.000E+00	 0.000E+00	 9.934E+01	 1.160E+01	 1.109E+03	 6.648E-01	-1.040E-01	 0.000E+00	 6.551E+02	 1.972E+03	 2.409E+02	-2.071E+02	 6.029E+02	 4.899E+03	 7.771E+03	-7.667E+01	 5.420E+03	 3.008E+02	 1.462E+03	 1.158E+03	-7.149E+01	-3.446E+03	 5.499E+03	 2.062E+03	-6.550E+02	 1.235E+03	-6.721E+01	-6.869E+03	 1.213E+04	 1.108E+05	-6.416E+02
   1.413	 1.096E+01	 1.190E+00	-5.194E-01	 4.112E+03	 3.736E+01	 4.000E+00	-9.766E-01	 0.000E+00	 0.000E+00	 1.002E+02	 1.161E+01	 1.113E+03	 6.683E-01	-1.042E-01	 0.000E+00	 6.797E+02	 1.967E+03	 2.380E+02	-2.078E+02	 6.044E+02	 4.965E+03	 7.706E+03	-7.933E+01	 5.569E+03	 1.883E+02	 1.476E+03	 1.162E+03	-7.005E+01	-3.444E+03	 5.631E+03	 2.081E+03	-7.999E+02	 1.244E+03	-6.398E+01	-6.866E+03	 1.203E+04	 1.115E+05	-7.862E+02
   1.425	 1.096E+01	 1.219E+00	-6.206E-01	 4.109E+03	 3.718E+01	 3.994E+00	-9.884E-01	 0.000E+00	 0.000E+00	 1.011E+02	 1.162E+01	 1.118E+03	 6.714E-01	-1.043E-01	 0.000E+00	 7.017E+02	 1.965E+03	 2.355E+02	-2.085E+02	 6.055E+02	 5.020E+03	 7.642E+03	-8.103E+01	 5.672E+03	 6.883E+01	 1.497E+03	 1.165E+03	-6.998E+01	-3.441E+03	 5.719E+03	 2.092E+03	-9.640E+02	 1.254E+03	-6.044E+01	-6.864E+03	 1.193E+04	 1.121E+05	-9.501E+02
   1.438	 1.095E+01	 1.248E+00	-7.219E-01	 4.106E+03	 3.699E+01	 3.989E+00	-9.980E-01	 0.000E+00	 0.000E+00	 1.020E+02	 1.163E+01	 1.123E+03	 6.743E-01	-1.045E-01	 0.000E+00	 7.215E+02	 1.963E+03	 2.347E+02	-2.089E+02	 6.065E+02	 5.063E+03	 7.604E+03	-7.882E+01	 5.727E+03	-4.444E+01	 1.520E+03	 1.167E+03	-7.127E+01	-3.440E+03	 5.763E+03	 2.098E+03	-1.134E+03	 1.265E+03	-5.669E+01	-6.863E+03	 1.183E+04	 1.127E+05	-1.120E+03
   1.450	 1.094E+01	 1.276E+00	-8.232E-01	 4.103E+03	 3.680E+01	 3.985E+00	-1.005E+00	 0.000E+00	 0.000E+00	 1.028E+02	 1.164E+01	 1.128E+03	 6.770E-01	-1.045E-01	 0.000E+00	 7.371E+02	 1.962E+03	 2.321E+02	-2.086E+02	 6.078E+02	 5.087E+03	 7.541E+03	-7.999E+01	 5.737E+03	-1.784E+02	 1.535E+03	 1.168E+03	-7.377E+01	-3.439E+03	 5.763E+03	 2.117E+03	-1.299E+03	 1.277E+03	-5.297E+01	-6.862E+03	 1.173E+04	 1.133E+05	-1.285E+03
   1.462	 1.093E+01	 1.130E+00	-8.295E-01	 4.100E+03	 3.661E+01	 3.983E+00	-1.010E+00	 0.000E+00	 0.000E+00	 1.037E+02	 1.165E+01	 1.133E+03	 6.793E-01	-1.045E-01	 0.000E+00	 7.499E+02	 1.961E+03	 2.293E+02	-2.076E+02	 6.095E+02	 5.089E+03	 7.475E+03	-8.150E+01	 5.701E+03	-3.218E+02	 1.548E+03	 1.167E+03	-7.735E+01	-3.437E+03	 5.721E+03	 2.140E+03	-1.457E+03	 1.288E+03	-4.947E+01	-6.861E+03	 1.164E+04	 1.139E+05	-1.443E+03
   1.475	 1.092E+01	 9.826E-01	-8.357E-01	 4.097E+03	 3.643E+01	 3.983E+00	-1.012E+00	 0.000E+00	 0.000E+00	 1.046E+02	 1.166E+01	 1.138E+03	 6.814E-01	-1.045E-01	 0.000E+00	 7.570E+02	 1.961E+03	 2.270E+02	-2.064E+02	 6.111E+02	 5.081E+03	 7.417E+03	-8.199E+01	 5.624E+03	-4.617E+02	 1.556E+03	 1.166E+03	-8.167E+01	-3.437E+03	 5.641E+03	 2.170E+03	-1.600E+03	 1.300E+03	-4.656E+01	-6.860E+03	 1.158E+04	 1.145E+05	-1.586E+03
   1.488	 1.091E+01	 8.357E-01	-8.420E-01	 4.093E+03	 3.624E+01	 3.984E+00	-1.011E+00	 0.000E+00	 0.000E+00	 1.055E+02	 1.168E+01	 1.142E+03	 6.832E-01	-1.043E-01	 0.000E+00	 7.603E+02	 1.962E+03	 2.246E+02	-2.047E+02	 6.132E+02	 5.053E+03	 7.359E+03	-8.320E+01	 5.508E+03	-6.068E+02	 1.558E+03	 1.164E+03	-8.650E+01	-3.436E+03	 5.524E+03	 2.209E+03	-1.727E+03	 1.311E+03	-4.455E+01	-6.859E+03	 1.154E+04	 1.150E+05	-1.714E+03
   1.500	 1.090E+01	 6.888E-01	-8.483E-01	 4.087E+03	 3.605E+01	 3.987E+00	-1.007E+00	 0.000E+00	 0.000E+00	 1.063E+02	 1.169E+01	 1.147E+03	 6.847E-01	-1.042E-01	 0.000E+00	 7.568E+02	 1.963E+03	 2.225E+02	-2.030E+02	 6.152E+02	 5.016E+03	 7.307E+03	-8.284E+01	 5.358E+03	-7.485E+02	 1.557E+03	 1.162E+03	-9.152E+01	-3.436E+03	 5.374E+03	 2.253E+03	-1.843E+03	 1.320E+03	-4.376E+01	-6.859E+03	 1.154E+04	 1.154E+05	-1.830E+03
   1.513	 1.075E+01	 6.752E-01	-7.565E-01	 4.081E+03	 3.586E+01	 3.991E+00	-1.000E+00	 0.000E+00	 0.000E+00	 1.072E+02	 1.171E+01	 1.151E+03	 6.860E-01	-1.040E-01	 0.000E+00	 7.479E+02	 1.965E+03	 2.201E+02	-2.012E+02	 6.173E+02	 4.962E+03	 7.249E+03	-8.479E+01	 5.179E+03	-8.944E+02	 1.540E+03	 1.160E+03	-9.646E+01	-3.436E+03	 5.196E+03	 2.317E+03	-1.949E+03	 1.328E+03	-4.450E+01	-6.859E+03	 1.158E+04	 1.157E+05	-1.935E+03
   1.525	 1.061E+01	 6.616E-01	-6.648E-01	 4.072E+03	 3.568E+01	 3.997E+00	-9.901E-01	 0.000E+00	 0.000E+00	 1.081E+02	 1.173E+01	 1.155E+03	 6.870E-01	-1.037E-01	 0.000E+00	 7.320E+02	 1.967E+03	 2.183E+02	-1.994E+02	 6.194E+02	 4.900E+03	 7.205E+03	-8.349E+01	 4.975E+03	-1.037E+03	 1.534E+03	 1.158E+03	-1.010E+02	-3.437E+03	 4.993E+03	 2.376E+03	-2.049E+03	 1.334E+03	-4.697E+01	-6.860E+03	 1.166E+04	 1.160E+05	-2.036E+03
   1.538	 1.046E+01	 6.479E-01	-5.731E-01	 4.063E+03	 3.549E+01	 4.004E+00	-9.771E-01	 0.000E+00	 0.000E+00	 1.090E+02	 1.174E+01	 1.158E+03	 6.878E-01	-1.034E-01	 0.000E+00	 7.101E+02	 1.964E+03	 2.170E+02	-1.977E+02	 6.211E+02	 4.829E+03	 7.177E+03	-7.881E+01	 4.751E+03	-1.168E+03	 1.526E+03	 1.157E+03	-1.051E+02	-3.438E+03	 4.769E+03	 2.440E+03	-2.147E+03	 1.337E+03	-5.138E+01	-6.861E+03	 1.180E+04	 1.161E+05	-2.135E+03
   1.550	 1.032E+01	 6.343E-01	-4.814E-01	 4.051E+03	 3.530E+01	 4.012E+00	-9.615E-01	 0.000E+00	 0.000E+00	 1.098E+02	 1.176E+01	 1.161E+03	 6.883E-01	-1.031E-01	 0.000E+00	 6.820E+02	 1.966E+03	 2.154E+02	-1.961E+02	 6.230E+02	 4.748E+03	 7.143E+03	-7.658E+01	 4.510E+03	-1.309E+03	 1.516E+03	 1.157E+03	-1.084E+02	-3.440E+03	 4.528E+03	 2.515E+03	-2.242E+03	 1.338E+03	-5.776E+01	-6.863E+03	 1.200E+04	 1.162E+05	-2.230E+03
   1.562	 1.032E+01	 7.935E-01	-4.834E-01	 4.037E+03	 3.511E+01	 4.021E+00	-9.435E-01	 0.000E+00	 0.000E+00	 1.107E+02	 1.177E+01	 1.163E+03	 6.886E-01	-1.027E-01	 0.000E+00	 6.487E+02	 1.968E+03	 2.141E+02	-1.947E+02	 6.245E+02	 4.660E+03	 7.120E+03	-7.562E+01	 4.257E+03	-1.442E+03	 1.493E+03	 1.156E+03	-1.109E+02	-3.442E+03	 4.274E+03	 2.603E+03	-2.339E+03	 1.336E+03	-6.614E+01	-6.865E+03	 1.224E+04	 1.162E+05	-2.327E+03
   1.575	 1.033E+01	 9.527E-01	-4.855E-01	 4.021E+03	 3.493E+01	 4.031E+00	-9.234E-01	 0.000E+00	 0.000E+00	 1.116E+02	 1.178E+01	 1.165E+03	 6.886E-01	-1.022E-01	 0.000E+00	 6.104E+02	 1.971E+03	 2.127E+02	-1.933E+02	 6.261E+02	 4.564E+03	 7.097E+03	-7.261E+01	 3.995E+03	-1.576E+03	 1.482E+03	 1.157E+03	-1.125E+02	-3.444E+03	 4.010E+03	 2.689E+03	-2.427E+03	 1.331E+03	-7.632E+01	-6.868E+03	 1.253E+04	 1.160E+05	-2.415E+03
   1.587	 1.034E+01	 1.112E+00	-4.876E-01	 4.029E+03	 3.496E+01	 4.041E+00	-9.016E-01	 0.000E+00	 0.000E+00	 1.125E+02	 1.178E+01	 1.166E+03	 6.883E-01	-1.017E-01	 0.000E+00	 5.692E+02	 1.972E+03	 2.128E+02	-1.922E+02	 6.273E+02	 4.465E+03	 7.099E+03	-6.692E+01	 3.728E+03	-1.695E+03	 1.468E+03	 1.159E+03	-1.133E+02	-3.448E+03	 3.739E+03	 2.779E+03	-2.514E+03	 1.324E+03	-8.813E+01	-6.871E+03	 1.286E+04	 1.158E+05	-2.502E+03
   1.600	 1.035E+01	 1.271E+00	-4.897E-01	 4.052E+03	 3.515E+01	 4.052E+00	-8.785E-01	 0.000E+00	 0.000E+00	 1.134E+02	 1.179E+01	 1.166E+03	 6.878E-01	-1.012E-01	 0.000E+00	 5.246E+02	 1.975E+03	 2.119E+02	-1.908E+02	 6.287E+02	 4.359E+03	 7.090E+03	-6.340E+01	 3.460E+03	-1.814E+03	 1.458E+03	 1.161E+03	-1.133E+02	-3.451E+03	 3.467E+03	 2.872E+03	-2.585E+03	 1.314E+03	-1.013E+02	-6.874E+03	 1.322E+04	 1.154E+05	-2.574E+03
   1.613	 1.029E+01	 1.258E+00	-4.583E-01	 4.073E+03	 3.533E+01	 4.064E+00	-8.547E-01	 0.000E+00	 0.000E+00	 1.143E+02	 1.179E+01	 1.166E+03	 6.871E-01	-1.006E-01	 0.000E+00	 4.793E+02	 1.979E+03	 2.110E+02	-1.894E+02	 6.298E+02	 4.248E+03	 7.083E+03	-6.053E+01	 3.194E+03	-1.931E+03	 1.419E+03	 1.162E+03	-1.126E+02	-3.455E+03	 3.197E+03	 2.991E+03	-2.647E+03	 1.303E+03	-1.154E+02	-6.878E+03	 1.360E+04	 1.150E+05	-2.637E+03
   1.625	 1.023E+01	 1.245E+00	-4.270E-01	 4.091E+03	 3.552E+01	 4.075E+00	-8.306E-01	 0.000E+00	 0.000E+00	 1.151E+02	 1.178E+01	 1.165E+03	 6.862E-01	-1.000E-01	 0.000E+00	 4.331E+02	 1.983E+03	 2.106E+02	-1.878E+02	 6.311E+02	 4.138E+03	 7.087E+03	-5.686E+01	 2.933E+03	-2.027E+03	 1.408E+03	 1.165E+03	-1.113E+02	-3.459E+03	 2.932E+03	 3.085E+03	-2.689E+03	 1.289E+03	-1.300E+02	-6.882E+03	 1.399E+04	 1.145E+05	-2.679E+03
   1.638	 1.018E+01	 1.232E+00	-3.957E-01	 4.108E+03	 3.571E+01	 4.087E+00	-8.067E-01	 0.000E+00	 0.000E+00	 1.160E+02	 1.177E+01	 1.164E+03	 6.850E-01	-9.939E-02	 0.000E+00	 3.887E+02	 1.986E+03	 2.115E+02	-1.864E+02	 6.322E+02	 4.027E+03	 7.108E+03	-5.175E+01	 2.682E+03	-2.101E+03	 1.397E+03	 1.169E+03	-1.096E+02	-3.464E+03	 2.677E+03	 3.171E+03	-2.718E+03	 1.273E+03	-1.446E+02	-6.887E+03	 1.438E+04	 1.139E+05	-2.708E+03
   1.650	 1.012E+01	 1.219E+00	-3.644E-01	 4.121E+03	 3.589E+01	 4.098E+00	-7.836E-01	 0.000E+00	 0.000E+00	 1.169E+02	 1.176E+01	 1.162E+03	 6.836E-01	-9.872E-02	 0.000E+00	 3.456E+02	 1.990E+03	 2.116E+02	-1.845E+02	 6.336E+02	 3.916E+03	 7.124E+03	-4.829E+01	 2.442E+03	-2.170E+03	 1.383E+03	 1.172E+03	-1.077E+02	-3.468E+03	 2.434E+03	 3.260E+03	-2.725E+03	 1.257E+03	-1.587E+02	-6.891E+03	 1.474E+04	 1.133E+05	-2.716E+03
   1.663	 1.010E+01	 1.241E+00	-3.589E-01	 4.128E+03	 3.604E+01	 4.109E+00	-7.616E-01	 0.000E+00	 0.000E+00	 1.178E+02	 1.175E+01	 1.159E+03	 6.819E-01	-9.801E-02	 0.000E+00	 3.065E+02	 1.990E+03	 2.109E+02	-1.817E+02	 6.353E+02	 3.799E+03	 7.137E+03	-4.633E+01	 2.217E+03	-2.235E+03	 1.372E+03	 1.174E+03	-1.057E+02	-3.472E+03	 2.208E+03	 3.347E+03	-2.721E+03	 1.240E+03	-1.719E+02	-6.895E+03	 1.507E+04	 1.126E+05	-2.712E+03
   1.675	 1.009E+01	 1.263E+00	-3.533E-01	 4.131E+03	 3.616E+01	 4.120E+00	-7.412E-01	 0.000E+00	 0.000E+00	 1.187E+02	 1.173E+01	 1.156E+03	 6.801E-01	-9.727E-02	 0.000E+00	 2.703E+02	 1.994E+03	 2.114E+02	-1.793E+02	 6.366E+02	 3.692E+03	 7.162E+03	-4.338E+01	 2.011E+03	-2.279E+03	 1.357E+03	 1.176E+03	-1.039E+02	-3.477E+03	 2.001E+03	 3.425E+03	-2.707E+03	 1.224E+03	-1.836E+02	-6.900E+03	 1.535E+04	 1.119E+05	-2.698E+03
   1.688	 1.007E+01	 1.285E+00	-3.478E-01	 4.128E+03	 3.625E+01	 4.130E+00	-7.226E-01	 0.000E+00	 0.000E+00	 1.196E+02	 1.171E+01	 1.152E+03	 6.780E-01	-9.651E-02	 0.000E+00	 2.391E+02	 1.997E+03	 2.123E+02	-1.766E+02	 6.380E+02	 3.590E+03	 7.198E+03	-4.022E+01	 1.827E+03	-2.303E+03	 1.340E+03	 1.178E+03	-1.022E+02	-3.482E+03	 1.816E+03	 3.491E+03	-2.686E+03	 1.209E+03	-1.934E+02	-6.906E+03	 1.558E+04	 1.112E+05	-2.678E+03
   1.700	 1.006E+01	 1.307E+00	-3.423E-01	 4.120E+03	 3.631E+01	 4.140E+00	-7.060E-01	 0.000E+00	 0.000E+00	 1.204E+02	 1.169E+01	 1.148E+03	 6.757E-01	-9.572E-02	 0.000E+00	 2.123E+02	 2.001E+03	 2.129E+02	-1.738E+02	 6.395E+02	 3.493E+03	 7.227E+03	-3.799E+01	 1.667E+03	-2.326E+03	 1.324E+03	 1.178E+03	-1.010E+02	-3.487E+03	 1.658E+03	 3.553E+03	-2.658E+03	 1.194E+03	-2.011E+02	-6.910E+03	 1.573E+04	 1.106E+05	-2.650E+03
   1.712	 9.947E+00	 1.226E+00	-4.232E-01	 4.108E+03	 3.634E+01	 4.149E+00	-6.917E-01	 0.000E+00	 0.000E+00	 1.213E+02	 1.167E+01	 1.143E+03	 6.732E-01	-9.491E-02	 0.000E+00	 1.904E+02	 2.006E+03	 2.124E+02	-1.704E+02	 6.412E+02	 3.398E+03	 7.241E+03	-4.136E+01	 1.536E+03	-2.344E+03	 1.323E+03	 1.177E+03	-1.001E+02	-3.492E+03	 1.528E+03	 3.596E+03	-2.630E+03	 1.182E+03	-2.063E+02	-6.915E+03	 1.581E+04	 1.099E+05	-2.622E+03
   1.725	 9.834E+00	 1.146E+00	-5.042E-01	 4.090E+03	 3.633E+01	 4.158E+00	-6.797E-01	 0.000E+00	 0.000E+00	 1.222E+02	 1.165E+01	 1.139E+03	 6.705E-01	-9.408E-02	 0.000E+00	 1.736E+02	 2.010E+03	 2.130E+02	-1.674E+02	 6.428E+02	 3.316E+03	 7.271E+03	-3.991E+01	 1.436E+03	-2.352E+03	 1.306E+03	 1.174E+03	-9.957E+01	-3.497E+03	 1.430E+03	 3.640E+03	-2.603E+03	 1.171E+03	-2.090E+02	-6.920E+03	 1.581E+04	 1.093E+05	-2.595E+03
   1.738	 9.720E+00	 1.065E+00	-5.851E-01	 4.067E+03	 3.628E+01	 4.166E+00	-6.700E-01	 0.000E+00	 0.000E+00	 1.231E+02	 1.163E+01	 1.134E+03	 6.676E-01	-9.322E-02	 0.000E+00	 1.614E+02	 2.015E+03	 2.148E+02	-1.646E+02	 6.444E+02	 3.246E+03	 7.314E+03	-3.902E+01	 1.370E+03	-2.333E+03	 1.310E+03	 1.171E+03	-9.935E+01	-3.502E+03	 1.367E+03	 3.648E+03	-2.574E+03	 1.162E+03	-2.090E+02	-6.925E+03	 1.573E+04	 1.087E+05	-2.567E+03
   1.750	 9.607E+00	 9.851E-01	-6.660E-01	 4.040E+03	 3.620E+01	 4.173E+00	-6.626E-01	 0.000E+00	 0.000E+00	 1.239E+02	 1.161E+01	 1.129E+03	 6.645E-01	-9.235E-02	 0.000E+00	 1.537E+02	 2.018E+03	 2.155E+02	-1.616E+02	 6.461E+02	 3.182E+03	 7.343E+03	-3.829E+01	 1.341E+03	-2.325E+03	 1.292E+03	 1.165E+03	-9.942E+01	-3.507E+03	 1.341E+03	 3.672E+03	-2.547E+03	 1.156E+03	-2.064E+02	-6.930E+03	 1.557E+04	 1.082E+05	-2.540E+03
   1.763	 9.516E+00	 1.004E+00	-6.795E-01	 4.008E+03	 3.608E+01	 4.179E+00	-6.573E-01	 0.000E+00	 0.000E+00	 1.248E+02	 1.159E+01	 1.124E+03	 6.612E-01	-9.146E-02	 0.000E+00	 1.490E+02	 2.025E+03	 2.153E+02	-1.588E+02	 6.479E+02	 3.129E+03	 7.356E+03	-3.904E+01	 1.350E+03	-2.309E+03	 1.278E+03	 1.157E+03	-9.961E+01	-3.512E+03	 1.353E+03	 3.680E+03	-2.518E+03	 1.152E+03	-2.014E+02	-6.934E+03	 1.533E+04	 1.077E+05	-2.511E+03
   1.775	 9.425E+00	 1.023E+00	-6.929E-01	 3.973E+03	 3.592E+01	 4.184E+00	-6.539E-01	 0.000E+00	 0.000E+00	 1.257E+02	 1.158E+01	 1.119E+03	 6.577E-01	-9.055E-02	 0.000E+00	 1.487E+02	 2.028E+03	 2.161E+02	-1.561E+02	 6.499E+02	 3.085E+03	 7.385E+03	-3.892E+01	 1.398E+03	-2.286E+03	 1.257E+03	 1.148E+03	-9.983E+01	-3.516E+03	 1.404E+03	 3.685E+03	-2.487E+03	 1.151E+03	-1.941E+02	-6.938E+03	 1.502E+04	 1.072E+05	-2.480E+03
   1.788	 9.335E+00	 1.041E+00	-7.064E-01	 3.936E+03	 3.573E+01	 4.188E+00	-6.524E-01	 0.000E+00	 0.000E+00	 1.265E+02	 1.156E+01	 1.114E+03	 6.541E-01	-8.963E-02	 0.000E+00	 1.515E+02	 2.032E+03	 2.167E+02	-1.537E+02	 6.521E+02	 3.049E+03	 7.408E+03	-3.915E+01	 1.485E+03	-2.254E+03	 1.246E+03	 1.138E+03	-9.995E+01	-3.520E+03	 1.493E+03	 3.672E+03	-2.450E+03	 1.151E+03	-1.847E+02	-6.942E+03	 1.464E+04	 1.068E+05	-2.442E+03
   1.800	 9.244E+00	 1.060E+00	-7.199E-01	 3.900E+03	 3.554E+01	 4.192E+00	-6.525E-01	 0.000E+00	 0.000E+00	 1.274E+02	 1.155E+01	 1.110E+03	 6.502E-01	-8.870E-02	 0.000E+00	 1.569E+02	 2.035E+03	 2.176E+02	-1.515E+02	 6.544E+02	 3.025E+03	 7.436E+03	-3.950E+01	 1.609E+03	-2.219E+03	 1.220E+03	 1.127E+03	-9.987E+01	-3.524E+03	 1.619E+03	 3.662E+03	-2.410E+03	 1.153E+03	-1.736E+02	-6.946E+03	 1.420E+04	 1.064E+05	-2.403E+03
   1.812	 9.279E+00	 1.125E+00	-6.859E-01	 3.865E+03	 3.535E+01	 4.195E+00	-6.540E-01	 0.000E+00	 0.000E+00	 1.283E+02	 1.154E+01	 1.106E+03	 6.461E-01	-8.775E-02	 0.000E+00	 1.646E+02	 2.037E+03	 2.193E+02	-1.497E+02	 6.566E+02	 3.011E+03	 7.475E+03	-3.974E+01	 1.768E+03	-2.160E+03	 1.197E+03	 1.115E+03	-9.946E+01	-3.528E+03	 1.781E+03	 3.633E+03	-2.364E+03	 1.155E+03	-1.610E+02	-6.950E+03	 1.371E+04	 1.060E+05	-2.356E+03
   1.825	 9.313E+00	 1.191E+00	-6.520E-01	 3.832E+03	 3.517E+01	 4.198E+00	-6.567E-01	 0.000E+00	 0.000E+00	 1.291E+02	 1.153E+01	 1.102E+03	 6.419E-01	-8.680E-02	 0.000E+00	 1.740E+02	 2.039E+03	 2.203E+02	-1.480E+02	 6.592E+02	 3.002E+03	 7.501E+03	-4.044E+01	 1.960E+03	-2.116E+03	 1.164E+03	 1.102E+03	-9.870E+01	-3.531E+03	 1.975E+03	 3.617E+03	-2.310E+03	 1.158E+03	-1.472E+02	-6.953E+03	 1.318E+04	 1.056E+05	-2.302E+03
   1.837	 9.348E+00	 1.256E+00	-6.181E-01	 3.801E+03	 3.498E+01	 4.201E+00	-6.606E-01	 0.000E+00	 0.000E+00	 1.300E+02	 1.152E+01	 1.099E+03	 6.375E-01	-8.583E-02	 0.000E+00	 1.858E+02	 2.039E+03	 2.206E+02	-1.461E+02	 6.619E+02	 2.995E+03	 7.519E+03	-4.397E+01	 2.181E+03	-2.074E+03	 1.138E+03	 1.088E+03	-9.757E+01	-3.534E+03	 2.195E+03	 3.597E+03	-2.255E+03	 1.161E+03	-1.325E+02	-6.955E+03	 1.262E+04	 1.051E+05	-2.247E+03
   1.850	 9.383E+00	 1.322E+00	-5.842E-01	 3.772E+03	 3.479E+01	 4.204E+00	-6.652E-01	 0.000E+00	 0.000E+00	 1.309E+02	 1.152E+01	 1.097E+03	 6.330E-01	-8.486E-02	 0.000E+00	 1.976E+02	 2.041E+03	 2.215E+02	-1.447E+02	 6.646E+02	 2.998E+03	 7.541E+03	-4.488E+01	 2.424E+03	-2.029E+03	 1.099E+03	 1.075E+03	-9.601E+01	-3.536E+03	 2.439E+03	 3.583E+03	-2.201E+03	 1.163E+03	-1.173E+02	-6.957E+03	 1.204E+04	 1.047E+05	-2.193E+03
   1.863	 9.392E+00	 1.241E+00	-5.326E-01	 3.745E+03	 3.460E+01	 4.207E+00	-6.706E-01	 0.000E+00	 0.000E+00	 1.317E+02	 1.152E+01	 1.095E+03	 6.282E-01	-8.388E-02	 0.000E+00	 2.099E+02	 2.042E+03	 2.221E+02	-1.435E+02	 6.670E+02	 3.007E+03	 7.560E+03	-4.565E+01	 2.686E+03	-1.974E+03	 1.078E+03	 1.062E+03	-9.407E+01	-3.538E+03	 2.699E+03	 3.553E+03	-2.151E+03	 1.164E+03	-1.017E+02	-6.958E+03	 1.144E+04	 1.041E+05	-2.143E+03
   1.875	 9.401E+00	 1.160E+00	-4.811E-01	 3.721E+03	 3.442E+01	 4.210E+00	-6.764E-01	 0.000E+00	 0.000E+00	 1.326E+02	 1.151E+01	 1.094E+03	 6.233E-01	-8.289E-02	 0.000E+00	 2.230E+02	 2.044E+03	 2.228E+02	-1.425E+02	 6.694E+02	 3.018E+03	 7.578E+03	-4.668E+01	 2.959E+03	-1.935E+03	 1.037E+03	 1.049E+03	-9.184E+01	-3.539E+03	 2.969E+03	 3.548E+03	-2.114E+03	 1.163E+03	-8.602E+01	-6.960E+03	 1.084E+04	 1.035E+05	-2.106E+03
   1.888	 9.410E+00	 1.079E+00	-4.295E-01	 3.699E+03	 3.423E+01	 4.214E+00	-6.824E-01	 0.000E+00	 0.000E+00	 1.334E+02	 1.151E+01	 1.093E+03	 6.183E-01	-8.191E-02	 0.000E+00	 2.357E+02	 2.047E+03	 2.250E+02	-1.421E+02	 6.714E+02	 3.038E+03	 7.614E+03	-4.456E+01	 3.239E+03	-1.869E+03	 1.017E+03	 1.038E+03	-8.927E+01	-3.541E+03	 3.244E+03	 3.515E+03	-2.085E+03	 1.159E+03	-7.053E+01	-6.961E+03	 1.024E+04	 1.028E+05	-2.077E+03
   1.900	 9.420E+00	 9.976E-01	-3.780E-01	 3.679E+03	 3.404E+01	 4.217E+00	-6.886E-01	 0.000E+00	 0.000E+00	 1.343E+02	 1.151E+01	 1.093E+03	 6.131E-01	-8.091E-02	 0.000E+00	 2.494E+02	 2.049E+03	 2.255E+02	-1.409E+02	 6.735E+02	 3.049E+03	 7.630E+03	-4.564E+01	 3.517E+03	-1.837E+03	 9.745E+02	 1.026E+03	-8.652E+01	-3.542E+03	 3.517E+03	 3.523E+03	-2.064E+03	 1.153E+03	-5.549E+01	-6.961E+03	 9.649E+03	 1.021E+05	-2.056E+03
   1.913	 9.484E+00	 8.941E-01	-3.685E-01	 3.661E+03	 3.385E+01	 4.221E+00	-6.947E-01	 0.000E+00	 0.000E+00	 1.352E+02	 1.152E+01	 1.094E+03	 6.078E-01	-7.992E-02	 0.000E+00	 2.621E+02	 2.051E+03	 2.265E+02	-1.402E+02	 6.753E+02	 3.065E+03	 7.652E+03	-4.564E+01	 3.789E+03	-1.791E+03	 9.397E+02	 1.016E+03	-8.355E+01	-3.542E+03	 3.782E+03	 3.521E+03	-2.049E+03	 1.144E+03	-4.110E+01	-6.961E+03	 9.082E+03	 1.012E+05	-2.040E+03
   1.925	 9.547E+00	 7.907E-01	-3.589E-01	 3.646E+03	 3.367E+01	 4.225E+00	-7.004E-01	 0.000E+00	 0.000E+00	 1.360E+02	 1.152E+01	 1.096E+03	 6.023E-01	-7.893E-02	 0.000E+00	 2.759E+02	 2.054E+03	 2.268E+02	-1.387E+02	 6.771E+02	 3.070E+03	 7.667E+03	-4.671E+01	 4.047E+03	-1.764E+03	 8.940E+02	 1.007E+03	-8.049E+01	-3.541E+03	 4.035E+03	 3.544E+03	-2.030E+03	 1.133E+03	-2.762E+01	-6.960E+03	 8.542E+03	 1.003E+05	-2.021E+03
   1.938	 9.611E+00	 6.873E-01	-3.494E-01	 3.633E+03	 3.348E+01	 4.229E+00	-7.057E-01	 0.000E+00	 0.000E+00	 1.369E+02	 1.153E+01	 1.098E+03	 5.967E-01	-7.794E-02	 0.000E+00	 2.895E+02	 2.055E+03	 2.264E+02	-1.366E+02	 6.790E+02	 3.067E+03	 7.673E+03	-4.821E+01	 4.289E+03	-1.759E+03	 8.385E+02	 9.972E+02	-7.738E+01	-3.540E+03	 4.271E+03	 3.594E+03	-2.009E+03	 1.119E+03	-1.525E+01	-6.959E+03	 8.037E+03	 9.922E+04	-2.000E+03
   1.950	 9.675E+00	 5.839E-01	-3.399E-01	 3.621E+03	 3.329E+01	 4.233E+00	-7.102E-01	 0.000E+00	 0.000E+00	 1.378E+02	 1.154E+01	 1.100E+03	 5.909E-01	-7.695E-02	 0.000E+00	 3.024E+02	 2.058E+03	 2.266E+02	-1.344E+02	 6.806E+02	 3.060E+03	 7.685E+03	-4.918E+01	 4.507E+03	-1.736E+03	 7.896E+02	 9.895E+02	-7.418E+01	-3.538E+03	 4.484E+03	 3.632E+03	-1.982E+03	 1.102E+03	-4.103E+00	-6.957E+03	 7.571E+03	 9.808E+04	-1.973E+03
   1.962	 9.665E+00	 5.250E-01	-3.111E-01	 3.611E+03	 3.310E+01	 4.237E+00	-7.137E-01	 0.000E+00	 0.000E+00	 1.386E+02	 1.155E+01	 1.104E+03	 5.850E-01	-7.595E-02	 0.000E+00	 3.135E+02	 2.059E+03	 2.277E+02	-1.324E+02	 6.821E+02	 3.051E+03	 7.710E+03	-4.837E+01	 4.700E+03	-1.702E+03	 7.340E+02	 9.830E+02	-7.092E+01	-3.537E+03	 4.672E+03	 3.670E+03	-1.947E+03	 1.083E+03	 5.613E+00	-6.955E+03	 7.150E+03	 9.684E+04	-1.938E+03
   1.975	 9.654E+00	 4.661E-01	-2.824E-01	 3.603E+03	 3.292E+01	 4.242E+00	-7.160E-01	 0.000E+00	 0.000E+00	 1.395E+02	 1.156E+01	 1.107E+03	 5.790E-01	-7.497E-02	 0.000E+00	 3.238E+02	 2.062E+03	 2.278E+02	-1.295E+02	 6.837E+02	 3.026E+03	 7.718E+03	-4.910E+01	 4.863E+03	-1.681E+03	 6.809E+02	 9.770E+02	-6.768E+01	-3.534E+03	 4.832E+03	 3.720E+03	-1.900E+03	 1.061E+03	 1.379E+01	-6.953E+03	 6.778E+03	 9.554E+04	-1.891E+03
   1.988	 9.644E+00	 4.071E-01	-2.537E-01	 3.596E+03	 3.274E+01	 4.246E+00	-7.168E-01	 0.000E+00	 0.000E+00	 1.404E+02	 1.157E+01	 1.111E+03	 5.729E-01	-7.398E-02	 0.000E+00	 3.317E+02	 2.062E+03	 2.273E+02	-1.262E+02	 6.855E+02	 2.992E+03	 7.724E+03	-5.136E+01	 4.995E+03	-1.670E+03	 6.304E+02	 9.712E+02	-6.447E+01	-3.531E+03	 4.960E+03	 3.780E+03	-1.849E+03	 1.037E+03	 2.034E+01	-6.949E+03	 6.459E+03	 9.417E+04	-1.839E+03
   2.000	 9.633E+00	 3.482E-01	-2.249E-01	 3.608E+03	 3.272E+01	 4.252E+00	-7.160E-01	 0.000E+00	 0.000E+00	 1.412E+02	 1.159E+01	 1.116E+03	 5.667E-01	-7.299E-02	 0.000E+00	 3.370E+02	 2.065E+03	 2.271E+02	-1.227E+02	 6.870E+02	 2.949E+03	 7.725E+03	-5.167E+01	 5.093E+03	-1.655E+03	 5.767E+02	 9.659E+02	-6.132E+01	-3.527E+03	 5.056E+03	 3.840E+03	-1.793E+03	 1.013E+03	 2.519E+01	-6.945E+03	 6.193E+03	 9.275E+04	-1.784E+03
   2.013	 9.705E+00	 4.159E-01	-2.655E-01	 3.620E+03	 3.270E+01	 4.257E+00	-7.132E-01	 0.000E+00	 0.000E+00	 1.421E+02	 1.161E+01	 1.120E+03	 5.604E-01	-7.201E-02	 0.000E+00	 3.380E+02	 2.068E+03	 2.267E+02	-1.195E+02	 6.884E+02	 2.901E+03	 7.724E+03	-5.281E+01	 5.158E+03	-1.644E+03	 5.171E+02	 9.604E+02	-5.816E+01	-3.523E+03	 5.118E+03	 3.906E+03	-1.739E+03	 9.872E+02	 2.831E+01	-6.940E+03	 5.983E+03	 9.131E+04	-1.730E+03
   2.025	 9.777E+00	 4.836E-01	-3.061E-01	 3.634E+03	 3.269E+01	 4.264E+00	-7.084E-01	 0.000E+00	 0.000E+00	 1.430E+02	 1.162E+01	 1.125E+03	 5.539E-01	-7.103E-02	 0.000E+00	 3.358E+02	 2.071E+03	 2.260E+02	-1.160E+02	 6.898E+02	 2.841E+03	 7.717E+03	-5.251E+01	 5.188E+03	-1.638E+03	 4.675E+02	 9.548E+02	-5.511E+01	-3.518E+03	 5.147E+03	 3.969E+03	-1.688E+03	 9.616E+02	 2.971E+01	-6.936E+03	 5.828E+03	 8.985E+04	-1.679E+03
   2.038	 9.848E+00	 5.513E-01	-3.466E-01	 3.648E+03	 3.268E+01	 4.270E+00	-7.014E-01	 0.000E+00	 0.000E+00	 1.439E+02	 1.164E+01	 1.129E+03	 5.474E-01	-7.005E-02	 0.000E+00	 3.289E+02	 2.074E+03	 2.254E+02	-1.127E+02	 6.911E+02	 2.776E+03	 7.711E+03	-5.229E+01	 5.186E+03	-1.639E+03	 4.182E+02	 9.486E+02	-5.210E+01	-3.514E+03	 5.142E+03	 4.034E+03	-1.645E+03	 9.367E+02	 2.942E+01	-6.931E+03	 5.728E+03	 8.839E+04	-1.636E+03
   2.050	 9.920E+00	 6.190E-01	-3.872E-01	 3.663E+03	 3.268E+01	 4.278E+00	-6.923E-01	 0.000E+00	 0.000E+00	 1.447E+02	 1.166E+01	 1.134E+03	 5.407E-01	-6.907E-02	 0.000E+00	 3.175E+02	 2.078E+03	 2.243E+02	-1.093E+02	 6.925E+02	 2.700E+03	 7.695E+03	-5.125E+01	 5.151E+03	-1.641E+03	 3.770E+02	 9.417E+02	-4.918E+01	-3.508E+03	 5.105E+03	 4.093E+03	-1.607E+03	 9.126E+02	 2.750E+01	-6.925E+03	 5.680E+03	 8.694E+04	-1.598E+03
   2.062	 1.007E+01	 7.143E-01	-4.099E-01	 3.678E+03	 3.268E+01	 4.285E+00	-6.808E-01	 0.000E+00	 0.000E+00	 1.456E+02	 1.168E+01	 1.138E+03	 5.340E-01	-6.808E-02	 0.000E+00	 3.000E+02	 2.081E+03	 2.231E+02	-1.067E+02	 6.936E+02	 2.625E+03	 7.675E+03	-5.043E+01	 5.086E+03	-1.641E+03	 3.256E+02	 9.336E+02	-4.630E+01	-3.504E+03	 5.038E+03	 4.149E+03	-1.574E+03	 8.900E+02	 2.406E+01	-6.920E+03	 5.680E+03	 8.553E+04	-1.565E+03
   2.075	 1.022E+01	 8.096E-01	-4.325E-01	 3.693E+03	 3.269E+01	 4.293E+00	-6.673E-01	 0.000E+00	 0.000E+00	 1.465E+02	 1.170E+01	 1.143E+03	 5.271E-01	-6.710E-02	 0.000E+00	 2.793E+02	 2.084E+03	 2.217E+02	-1.035E+02	 6.950E+02	 2.535E+03	 7.652E+03	-4.864E+01	 4.991E+03	-1.645E+03	 2.934E+02	 9.246E+02	-4.358E+01	-3.498E+03	 4.942E+03	 4.194E+03	-1.538E+03	 8.692E+02	 1.925E+01	-6.914E+03	 5.724E+03	 8.416E+04	-1.530E+03
   2.088	 1.037E+01	 9.049E-01	-4.552E-01	 3.708E+03	 3.271E+01	 4.301E+00	-6.517E-01	 0.000E+00	 0.000E+00	 1.474E+02	 1.172E+01	 1.147E+03	 5.202E-01	-6.611E-02	 0.000E+00	 2.538E+02	 2.084E+03	 2.218E+02	-1.011E+02	 6.965E+02	 2.447E+03	 7.648E+03	-4.122E+01	 4.869E+03	-1.634E+03	 2.733E+02	 9.152E+02	-4.097E+01	-3.492E+03	 4.818E+03	 4.217E+03	-1.504E+03	 8.502E+02	 1.327E+01	-6.909E+03	 5.807E+03	 8.283E+04	-1.495E+03
   2.100	 1.052E+01	 1.000E+00	-4.779E-01	 3.722E+03	 3.272E+01	 4.309E+00	-6.343E-01	 0.000E+00	 0.000E+00	 1.482E+02	 1.173E+01	 1.151E+03	 5.132E-01	-6.512E-02	 0.000E+00	 2.249E+02	 2.086E+03	 2.204E+02	-9.816E+01	 6.981E+02	 2.346E+03	 7.621E+03	-3.876E+01	 4.721E+03	-1.635E+03	 2.503E+02	 9.038E+02	-3.859E+01	-3.487E+03	 4.671E+03	 4.243E+03	-1.464E+03	 8.339E+02	 6.259E+00	-6.903E+03	 5.923E+03	 8.156E+04	-1.455E+03
   2.112	 1.054E+01	 1.008E+00	-5.680E-01	 3.735E+03	 3.275E+01	 4.317E+00	-6.152E-01	 0.000E+00	 0.000E+00	 1.491E+02	 1.175E+01	 1.154E+03	 5.061E-01	-6.412E-02	 0.000E+00	 1.928E+02	 2.089E+03	 2.187E+02	-9.533E+01	 7.001E+02	 2.239E+03	 7.590E+03	-3.582E+01	 4.550E+03	-1.650E+03	 2.316E+02	 8.907E+02	-3.648E+01	-3.481E+03	 4.500E+03	 4.273E+03	-1.421E+03	 8.205E+02	-1.514E+00	-6.896E+03	 6.065E+03	 8.037E+04	-1.413E+03
   2.125	 1.056E+01	 1.016E+00	-6.581E-01	 3.748E+03	 3.277E+01	 4.325E+00	-5.949E-01	 0.000E+00	 0.000E+00	 1.500E+02	 1.176E+01	 1.157E+03	 4.990E-01	-6.312E-02	 0.000E+00	 1.579E+02	 2.091E+03	 2.172E+02	-9.263E+01	 7.019E+02	 2.130E+03	 7.562E+03	-3.287E+01	 4.359E+03	-1.647E+03	 2.199E+02	 8.768E+02	-3.468E+01	-3.475E+03	 4.310E+03	 4.277E+03	-1.379E+03	 8.090E+02	-9.804E+00	-6.890E+03	 6.225E+03	 7.922E+04	-1.371E+03
   2.138	 1.058E+01	 1.024E+00	-7.483E-01	 3.759E+03	 3.280E+01	 4.332E+00	-5.736E-01	 0.000E+00	 0.000E+00	 1.509E+02	 1.177E+01	 1.159E+03	 4.918E-01	-6.211E-02	 0.000E+00	 1.202E+02	 2.094E+03	 2.150E+02	-9.002E+01	 7.039E+02	 2.019E+03	 7.522E+03	-2.891E+01	 4.149E+03	-1.654E+03	 2.088E+02	 8.612E+02	-3.323E+01	-3.469E+03	 4.102E+03	 4.283E+03	-1.336E+03	 8.000E+02	-1.838E+01	-6.884E+03	 6.396E+03	 7.813E+04	-1.329E+03
   2.150	 1.060E+01	 1.032E+00	-8.384E-01	 3.769E+03	 3.283E+01	 4.338E+00	-5.517E-01	 0.000E+00	 0.000E+00	 1.518E+02	 1.178E+01	 1.161E+03	 4.845E-01	-6.109E-02	 0.000E+00	 8.221E+01	 2.094E+03	 2.137E+02	-8.743E+01	 7.059E+02	 1.906E+03	 7.495E+03	-2.569E+01	 3.924E+03	-1.644E+03	 2.090E+02	 8.454E+02	-3.221E+01	-3.464E+03	 3.880E+03	 4.265E+03	-1.297E+03	 7.924E+02	-2.699E+01	-6.879E+03	 6.571E+03	 7.708E+04	-1.291E+03
   2.163	 1.062E+01	 1.081E+00	-8.378E-01	 3.777E+03	 3.286E+01	 4.344E+00	-5.295E-01	 0.000E+00	 0.000E+00	 1.526E+02	 1.178E+01	 1.163E+03	 4.772E-01	-6.006E-02	 0.000E+00	 4.306E+01	 2.096E+03	 2.120E+02	-8.479E+01	 7.080E+02	 1.793E+03	 7.463E+03	-2.266E+01	 3.688E+03	-1.643E+03	 2.181E+02	 8.284E+02	-3.158E+01	-3.458E+03	 3.648E+03	 4.246E+03	-1.260E+03	 7.866E+02	-3.545E+01	-6.873E+03	 6.743E+03	 7.607E+04	-1.254E+03
   2.175	 1.065E+01	 1.131E+00	-8.373E-01	 3.784E+03	 3.289E+01	 4.348E+00	-5.074E-01	 0.000E+00	 0.000E+00	 1.535E+02	 1.178E+01	 1.164E+03	 4.698E-01	-5.902E-02	 0.000E+00	 5.074E+00	 2.096E+03	 2.109E+02	-8.224E+01	 7.099E+02	 1.680E+03	 7.441E+03	-1.944E+01	 3.444E+03	-1.623E+03	 2.305E+02	 8.114E+02	-3.138E+01	-3.454E+03	 3.407E+03	 4.207E+03	-1.231E+03	 7.815E+02	-4.358E+01	-6.868E+03	 6.907E+03	 7.507E+04	-1.225E+03
   2.188	 1.067E+01	 1.181E+00	-8.367E-01	 3.788E+03	 3.293E+01	 4.351E+00	-4.857E-01	 0.000E+00	 0.000E+00	 1.544E+02	 1.178E+01	 1.164E+03	 4.623E-01	-5.796E-02	 0.000E+00	-3.208E+01	 2.096E+03	 2.087E+02	-7.940E+01	 7.119E+02	 1.567E+03	 7.406E+03	-1.864E+01	 3.196E+03	-1.625E+03	 2.321E+02	 7.931E+02	-3.153E+01	-3.449E+03	 3.164E+03	 4.186E+03	-1.203E+03	 7.779E+02	-5.127E+01	-6.863E+03	 7.058E+03	 7.411E+04	-1.197E+03
   2.200	 1.069E+01	 1.231E+00	-8.362E-01	 3.791E+03	 3.296E+01	 4.354E+00	-4.649E-01	 0.000E+00	 0.000E+00	 1.553E+02	 1.178E+01	 1.164E+03	 4.548E-01	-5.690E-02	 0.000E+00	-6.696E+01	 2.095E+03	 2.079E+02	-7.680E+01	 7.139E+02	 1.459E+03	 7.392E+03	-1.567E+01	 2.948E+03	-1.592E+03	 2.524E+02	 7.761E+02	-3.194E+01	-3.445E+03	 2.921E+03	 4.129E+03	-1.176E+03	 7.734E+02	-5.838E+01	-6.858E+03	 7.192E+03	 7.313E+04	-1.171E+03
   2.213	 1.074E+01	 1.150E+00	-8.496E-01	 3.792E+03	 3.299E+01	 4.355E+00	-4.451E-01	 0.000E+00	 0.000E+00	 1.562E+02	 1.177E+01	 1.163E+03	 4.473E-01	-5.581E-02	 0.000E+00	-9.951E+01	 2.094E+03	 2.085E+02	-7.459E+01	 7.157E+02	 1.361E+03	 7.396E+03	-1.230E+01	 2.705E+03	-1.544E+03	 2.615E+02	 7.598E+02	-3.249E+01	-3.441E+03	 2.684E+03	 4.061E+03	-1.147E+03	 7.683E+02	-6.487E+01	-6.855E+03	 7.306E+03	 7.212E+04	-1.142E+03
   2.225	 1.078E+01	 1.069E+00	-8.630E-01	 3.791E+03	 3.302E+01	 4.355E+00	-4.268E-01	 0.000E+00	 0.000E+00	 1.571E+02	 1.177E+01	 1.161E+03	 4.398E-01	-5.471E-02	 0.000E+00	-1.287E+02	 2.092E+03	 2.083E+02	-7.182E+01	 7.177E+02	 1.262E+03	 7.392E+03	-9.796E+00	 2.473E+03	-1.496E+03	 2.816E+02	 7.438E+02	-3.309E+01	-3.438E+03	 2.458E+03	 3.990E+03	-1.105E+03	 7.623E+02	-7.071E+01	-6.851E+03	 7.397E+03	 7.109E+04	-1.100E+03
   2.237	 1.083E+01	 9.882E-01	-8.764E-01	 3.799E+03	 3.315E+01	 4.354E+00	-4.102E-01	 0.000E+00	 0.000E+00	 1.579E+02	 1.176E+01	 1.159E+03	 4.322E-01	-5.360E-02	 0.000E+00	-1.547E+02	 2.085E+03	 2.101E+02	-6.949E+01	 7.196E+02	 1.177E+03	 7.419E+03	-6.187E+00	 2.254E+03	-1.402E+03	 3.161E+02	 7.301E+02	-3.358E+01	-3.435E+03	 2.246E+03	 3.880E+03	-1.058E+03	 7.539E+02	-7.580E+01	-6.848E+03	 7.463E+03	 6.999E+04	-1.054E+03
   2.250	 1.087E+01	 9.074E-01	-8.898E-01	 3.812E+03	 3.333E+01	 4.352E+00	-3.954E-01	 0.000E+00	 0.000E+00	 1.588E+02	 1.175E+01	 1.157E+03	 4.246E-01	-5.247E-02	 0.000E+00	-1.767E+02	 2.083E+03	 2.103E+02	-6.669E+01	 7.214E+02	 1.092E+03	 7.425E+03	-4.284E+00	 2.055E+03	-1.339E+03	 3.328E+02	 7.158E+02	-3.390E+01	-3.432E+03	 2.053E+03	 3.800E+03	-1.004E+03	 7.451E+02	-8.025E+01	-6.845E+03	 7.505E+03	 6.888E+04	-9.997E+02
   2.263	 1.085E+01	 9.581E-01	-9.066E-01	 3.820E+03	 3.349E+01	 4.350E+00	-3.827E-01	 0.000E+00	 0.000E+00	 1.597E+02	 1.174E+01	 1.154E+03	 4.170E-01	-5.131E-02	 0.000E+00	-1.936E+02	 2.077E+03	 2.117E+02	-6.379E+01	 7.233E+02	 1.016E+03	 7.453E+03	-3.805E+00	 1.879E+03	-1.259E+03	 3.639E+02	 7.032E+02	-3.391E+01	-3.430E+03	 1.883E+03	 3.706E+03	-9.467E+02	 7.341E+02	-8.396E+01	-6.843E+03	 7.518E+03	 6.770E+04	-9.429E+02
   2.275	 1.082E+01	 1.009E+00	-9.235E-01	 3.824E+03	 3.362E+01	 4.348E+00	-3.722E-01	 0.000E+00	 0.000E+00	 1.606E+02	 1.173E+01	 1.151E+03	 4.094E-01	-5.015E-02	 0.000E+00	-2.081E+02	 2.076E+03	 2.121E+02	-6.131E+01	 7.249E+02	 9.519E+02	 7.465E+03	-2.539E+00	 1.730E+03	-1.188E+03	 3.794E+02	 6.909E+02	-3.353E+01	-3.428E+03	 1.738E+03	 3.623E+03	-8.972E+02	 7.217E+02	-8.693E+01	-6.841E+03	 7.503E+03	 6.649E+04	-8.936E+02
   2.288	 1.079E+01	 1.059E+00	-9.403E-01	 3.823E+03	 3.372E+01	 4.345E+00	-3.640E-01	 0.000E+00	 0.000E+00	 1.615E+02	 1.172E+01	 1.147E+03	 4.018E-01	-4.896E-02	 0.000E+00	-2.183E+02	 2.072E+03	 2.139E+02	-5.946E+01	 7.262E+02	 9.036E+02	 7.498E+03	-3.000E-01	 1.612E+03	-1.083E+03	 3.961E+02	 6.808E+02	-3.265E+01	-3.428E+03	 1.623E+03	 3.514E+03	-8.515E+02	 7.065E+02	-8.911E+01	-6.840E+03	 7.457E+03	 6.520E+04	-8.482E+02
   2.300	 1.077E+01	 1.110E+00	-9.572E-01	 3.818E+03	 3.379E+01	 4.343E+00	-3.583E-01	 0.000E+00	 0.000E+00	 1.623E+02	 1.171E+01	 1.143E+03	 3.941E-01	-4.776E-02	 0.000E+00	-2.250E+02	 2.071E+03	 2.144E+02	-5.750E+01	 7.274E+02	 8.641E+02	 7.515E+03	 3.107E-01	 1.525E+03	-1.006E+03	 4.095E+02	 6.705E+02	-3.130E+01	-3.428E+03	 1.538E+03	 3.431E+03	-8.142E+02	 6.905E+02	-9.046E+01	-6.840E+03	 7.378E+03	 6.388E+04	-8.110E+02
   2.312	 1.077E+01	 1.102E+00	-8.515E-01	 3.808E+03	 3.383E+01	 4.341E+00	-3.550E-01	 0.000E+00	 0.000E+00	 1.632E+02	 1.169E+01	 1.139E+03	 3.865E-01	-4.654E-02	 0.000E+00	-2.273E+02	 2.074E+03	 2.151E+02	-5.574E+01	 7.286E+02	 8.355E+02	 7.530E+03	 2.267E-01	 1.473E+03	-9.255E+02	 4.455E+02	 6.612E+02	-2.945E+01	-3.427E+03	 1.485E+03	 3.343E+03	-7.844E+02	 6.726E+02	-9.088E+01	-6.839E+03	 7.265E+03	 6.252E+04	-7.814E+02
[...]
  59.450	 1.164E+01	-7.501E-01	-3.703E-01	 3.886E+03	 3.453E+01	 4.262E+00	-3.774E-01	 0.000E+00	 0.000E+00	 1.925E+02	 1.173E+01	 1.139E+03	 3.156E-01	-3.827E-02	 0.000E+00	-7.268E+01	 2.080E+03	 2.300E+02	 4.676E+00	 7.343E+02	 3.808E+02	 7.993E+03	 2.696E+00	 3.469E+03	 9.634E+02	 8.533E+02	 5.826E+02	 1.884E+00	-3.483E+03	 3.359E+03	 1.524E+03	-1.347E+03	 5.501E+02	-6.320E+00	-6.894E+03	 3.613E+03	 5.136E+04	-1.343E+03
  59.463	 1.155E+01	-6.497E-01	-2.770E-01	 3.886E+03	 3.452E+01	 4.258E+00	-3.713E-01	 0.000E+00	 0.000E+00	 1.934E+02	 1.173E+01	 1.139E+03	 3.149E-01	-3.839E-02	 0.000E+00	-8.140E+01	 2.079E+03	 2.317E+02	 6.621E+00	 7.334E+02	 3.405E+02	 8.040E+03	 4.753E+00	 3.462E+03	 9.649E+02	 8.346E+02	 5.852E+02	 1.144E+00	-3.482E+03	 3.354E+03	 1.552E+03	-1.340E+03	 5.412E+02	-5.803E+00	-6.893E+03	 3.613E+03	 5.103E+04	-1.337E+03
  59.475	 1.147E+01	-5.492E-01	-1.837E-01	 3.886E+03	 3.451E+01	 4.257E+00	-3.649E-01	 0.000E+00	 0.000E+00	 1.943E+02	 1.173E+01	 1.139E+03	 3.142E-01	-3.850E-02	 0.000E+00	-9.060E+01	 2.079E+03	 2.335E+02	 8.568E+00	 7.324E+02	 2.975E+02	 8.090E+03	 5.692E+00	 3.452E+03	 9.724E+02	 8.033E+02	 5.881E+02	 1.387E-01	-3.481E+03	 3.347E+03	 1.571E+03	-1.333E+03	 5.323E+02	-4.889E+00	-6.892E+03	 3.603E+03	 5.070E+04	-1.330E+03
  59.487	 1.138E+01	-4.487E-01	-9.039E-02	 3.885E+03	 3.450E+01	 4.258E+00	-3.583E-01	 0.000E+00	 0.000E+00	 1.952E+02	 1.173E+01	 1.139E+03	 3.136E-01	-3.862E-02	 0.000E+00	-1.011E+02	 2.077E+03	 2.358E+02	 1.032E+01	 7.316E+02	 2.560E+02	 8.149E+03	 6.341E+00	 3.440E+03	 9.949E+02	 7.433E+02	 5.919E+02	-1.049E+00	-3.482E+03	 3.340E+03	 1.565E+03	-1.322E+03	 5.234E+02	-3.649E+00	-6.892E+03	 3.585E+03	 5.038E+04	-1.318E+03
  59.500	 1.130E+01	-3.482E-01	 2.926E-03	 3.885E+03	 3.449E+01	 4.260E+00	-3.514E-01	 0.000E+00	 0.000E+00	 1.961E+02	 1.174E+01	 1.139E+03	 3.130E-01	-3.873E-02	 0.000E+00	-1.115E+02	 2.078E+03	 2.374E+02	 1.239E+01	 7.306E+02	 2.087E+02	 8.197E+03	 7.381E+00	 3.426E+03	 1.005E+03	 6.986E+02	 5.944E+02	-2.425E+00	-3.481E+03	 3.331E+03	 1.573E+03	-1.297E+03	 5.160E+02	-2.219E+00	-6.891E+03	 3.562E+03	 5.011E+04	-1.294E+03
  59.513	 1.129E+01	-3.412E-01	-3.319E-02	 3.885E+03	 3.449E+01	 4.264E+00	-3.443E-01	 0.000E+00	 0.000E+00	 1.969E+02	 1.173E+01	 1.140E+03	 3.124E-01	-3.884E-02	 0.000E+00	-1.229E+02	 2.078E+03	 2.391E+02	 1.462E+01	 7.294E+02	 1.605E+02	 8.247E+03	 7.522E+00	 3.410E+03	 1.029E+03	 6.722E+02	 5.963E+02	-3.957E+00	-3.479E+03	 3.320E+03	 1.574E+03	-1.264E+03	 5.097E+02	-6.419E-01	-6.889E+03	 3.534E+03	 4.987E+04	-1.261E+03
  59.525	 1.128E+01	-3.342E-01	-6.931E-02	 3.886E+03	 3.449E+01	 4.271E+00	-3.371E-01	 0.000E+00	 0.000E+00	 1.978E+02	 1.173E+01	 1.140E+03	 3.119E-01	-3.895E-02	 0.000E+00	-1.340E+02	 2.081E+03	 2.403E+02	 1.686E+01	 7.282E+02	 1.088E+02	 8.286E+03	 8.602E+00	 3.392E+03	 1.038E+03	 6.172E+02	 5.976E+02	-5.522E+00	-3.478E+03	 3.308E+03	 1.573E+03	-1.227E+03	 5.052E+02	 9.243E-01	-6.888E+03	 3.508E+03	 4.969E+04	-1.224E+03
  59.538	 1.127E+01	-3.272E-01	-1.054E-01	 3.886E+03	 3.448E+01	 4.279E+00	-3.298E-01	 0.000E+00	 0.000E+00	 1.987E+02	 1.173E+01	 1.140E+03	 3.113E-01	-3.906E-02	 0.000E+00	-1.443E+02	 2.085E+03	 2.420E+02	 1.939E+01	 7.272E+02	 5.384E+01	 8.329E+03	 7.620E+00	 3.372E+03	 1.045E+03	 5.630E+02	 5.981E+02	-7.069E+00	-3.477E+03	 3.296E+03	 1.570E+03	-1.179E+03	 5.026E+02	 2.362E+00	-6.888E+03	 3.484E+03	 4.955E+04	-1.176E+03
  59.550	 1.127E+01	-3.203E-01	-1.416E-01	 3.886E+03	 3.448E+01	 4.289E+00	-3.224E-01	 0.000E+00	 0.000E+00	 1.996E+02	 1.173E+01	 1.140E+03	 3.109E-01	-3.916E-02	 0.000E+00	-1.556E+02	 2.090E+03	 2.428E+02	 2.183E+01	 7.260E+02	-2.134E+00	 8.357E+03	 8.704E+00	 3.351E+03	 1.049E+03	 5.000E+02	 5.978E+02	-8.526E+00	-3.476E+03	 3.281E+03	 1.561E+03	-1.133E+03	 5.016E+02	 3.595E+00	-6.887E+03	 3.466E+03	 4.947E+04	-1.130E+03
  59.562	 1.130E+01	-3.307E-01	-6.510E-02	 3.885E+03	 3.448E+01	 4.301E+00	-3.150E-01	 0.000E+00	 0.000E+00	 2.005E+02	 1.173E+01	 1.140E+03	 3.104E-01	-3.926E-02	 0.000E+00	-1.659E+02	 2.095E+03	 2.436E+02	 2.454E+01	 7.251E+02	-6.183E+01	 8.383E+03	 8.254E+00	 3.329E+03	 1.037E+03	 4.317E+02	 5.964E+02	-9.832E+00	-3.476E+03	 3.267E+03	 1.556E+03	-1.079E+03	 5.028E+02	 4.485E+00	-6.887E+03	 3.457E+03	 4.946E+04	-1.076E+03
  59.575	 1.133E+01	-3.411E-01	 1.136E-02	 3.885E+03	 3.448E+01	 4.314E+00	-3.074E-01	 0.000E+00	 0.000E+00	 2.013E+02	 1.173E+01	 1.140E+03	 3.100E-01	-3.937E-02	 0.000E+00	-1.772E+02	 2.101E+03	 2.438E+02	 2.723E+01	 7.239E+02	-1.224E+02	 8.397E+03	 9.321E+00	 3.307E+03	 1.036E+03	 3.616E+02	 5.944E+02	-1.088E+01	-3.475E+03	 3.253E+03	 1.539E+03	-1.019E+03	 5.053E+02	 4.959E+00	-6.886E+03	 3.459E+03	 4.948E+04	-1.016E+03
  59.588	 1.136E+01	-3.515E-01	 8.781E-02	 3.885E+03	 3.448E+01	 4.329E+00	-2.998E-01	 0.000E+00	 0.000E+00	 2.022E+02	 1.173E+01	 1.140E+03	 3.097E-01	-3.947E-02	 0.000E+00	-1.878E+02	 2.108E+03	 2.441E+02	 2.997E+01	 7.229E+02	-1.849E+02	 8.408E+03	 9.253E+00	 3.285E+03	 1.028E+03	 2.764E+02	 5.920E+02	-1.164E+01	-3.476E+03	 3.238E+03	 1.514E+03	-9.540E+02	 5.093E+02	 4.974E+00	-6.886E+03	 3.473E+03	 4.955E+04	-9.508E+02
  59.600	 1.139E+01	-3.619E-01	 1.643E-01	 3.884E+03	 3.448E+01	 4.346E+00	-2.922E-01	 0.000E+00	 0.000E+00	 2.031E+02	 1.173E+01	 1.140E+03	 3.093E-01	-3.957E-02	 0.000E+00	-1.988E+02	 2.115E+03	 2.437E+02	 3.295E+01	 7.216E+02	-2.499E+02	 8.407E+03	 1.029E+01	 3.265E+03	 1.019E+03	 2.007E+02	 5.888E+02	-1.210E+01	-3.475E+03	 3.226E+03	 1.491E+03	-8.769E+02	 5.146E+02	 4.450E+00	-6.886E+03	 3.501E+03	 4.966E+04	-8.738E+02
  59.612	 1.137E+01	-4.972E-01	 1.411E-01	 3.883E+03	 3.447E+01	 4.363E+00	-2.845E-01	 0.000E+00	 0.000E+00	 2.040E+02	 1.173E+01	 1.139E+03	 3.090E-01	-3.966E-02	 0.000E+00	-2.094E+02	 2.121E+03	 2.436E+02	 3.585E+01	 7.203E+02	-3.149E+02	 8.408E+03	 1.096E+01	 3.246E+03	 1.021E+03	 1.306E+02	 5.854E+02	-1.227E+01	-3.474E+03	 3.213E+03	 1.457E+03	-7.989E+02	 5.206E+02	 3.469E+00	-6.885E+03	 3.542E+03	 4.980E+04	-7.958E+02
  59.625	 1.135E+01	-6.325E-01	 1.180E-01	 3.881E+03	 3.447E+01	 4.382E+00	-2.768E-01	 0.000E+00	 0.000E+00	 2.049E+02	 1.173E+01	 1.139E+03	 3.088E-01	-3.976E-02	 0.000E+00	-2.202E+02	 2.130E+03	 2.427E+02	 3.898E+01	 7.190E+02	-3.829E+02	 8.395E+03	 1.197E+01	 3.227E+03	 1.006E+03	 5.635E+01	 5.813E+02	-1.217E+01	-3.474E+03	 3.201E+03	 1.432E+03	-7.234E+02	 5.277E+02	 2.005E+00	-6.885E+03	 3.594E+03	 4.997E+04	-7.203E+02
  59.638	 1.134E+01	-7.678E-01	 9.481E-02	 3.879E+03	 3.446E+01	 4.402E+00	-2.690E-01	 0.000E+00	 0.000E+00	 2.057E+02	 1.173E+01	 1.139E+03	 3.086E-01	-3.986E-02	 0.000E+00	-2.305E+02	 2.136E+03	 2.413E+02	 4.234E+01	 7.178E+02	-4.545E+02	 8.376E+03	 1.119E+01	 3.211E+03	 9.874E+02	-1.455E+01	 5.771E+02	-1.182E+01	-3.474E+03	 3.190E+03	 1.408E+03	-6.511E+02	 5.351E+02	 1.431E-01	-6.885E+03	 3.657E+03	 5.016E+04	-6.480E+02
  59.650	 1.132E+01	-9.031E-01	 7.166E-02	 3.877E+03	 3.445E+01	 4.423E+00	-2.613E-01	 0.000E+00	 0.000E+00	 2.066E+02	 1.172E+01	 1.138E+03	 3.084E-01	-3.995E-02	 0.000E+00	-2.412E+02	 2.145E+03	 2.400E+02	 4.551E+01	 7.165E+02	-5.240E+02	 8.353E+03	 1.218E+01	 3.196E+03	 9.694E+02	-8.272E+01	 5.730E+02	-1.129E+01	-3.474E+03	 3.180E+03	 1.384E+03	-5.886E+02	 5.425E+02	-2.007E+00	-6.884E+03	 3.728E+03	 5.035E+04	-5.855E+02
  59.663	 1.137E+01	-8.558E-01	 4.329E-02	 3.875E+03	 3.444E+01	 4.445E+00	-2.536E-01	 0.000E+00	 0.000E+00	 2.075E+02	 1.172E+01	 1.138E+03	 3.083E-01	-4.005E-02	 0.000E+00	-2.513E+02	 2.152E+03	 2.396E+02	 4.852E+01	 7.152E+02	-5.933E+02	 8.341E+03	 1.412E+01	 3.184E+03	 9.642E+02	-1.546E+02	 5.699E+02	-1.057E+01	-3.474E+03	 3.171E+03	 1.346E+03	-5.332E+02	 5.491E+02	-4.344E+00	-6.885E+03	 3.804E+03	 5.052E+04	-5.301E+02
  59.675	 1.143E+01	-8.085E-01	 1.492E-02	 3.872E+03	 3.443E+01	 4.467E+00	-2.458E-01	 0.000E+00	 0.000E+00	 2.084E+02	 1.172E+01	 1.138E+03	 3.082E-01	-4.015E-02	 0.000E+00	-2.620E+02	 2.162E+03	 2.381E+02	 5.168E+01	 7.139E+02	-6.636E+02	 8.313E+03	 1.511E+01	 3.174E+03	 9.446E+02	-2.154E+02	 5.664E+02	-9.771E+00	-3.474E+03	 3.164E+03	 1.325E+03	-4.851E+02	 5.554E+02	-6.805E+00	-6.885E+03	 3.882E+03	 5.069E+04	-4.820E+02
  59.688	 1.148E+01	-7.612E-01	-1.345E-02	 3.869E+03	 3.441E+01	 4.489E+00	-2.381E-01	 0.000E+00	 0.000E+00	 2.093E+02	 1.172E+01	 1.137E+03	 3.081E-01	-4.025E-02	 0.000E+00	-2.719E+02	 2.170E+03	 2.363E+02	 5.519E+01	 7.126E+02	-7.384E+02	 8.285E+03	 1.499E+01	 3.167E+03	 9.209E+02	-2.680E+02	 5.634E+02	-8.923E+00	-3.474E+03	 3.160E+03	 1.310E+03	-4.410E+02	 5.609E+02	-9.260E+00	-6.885E+03	 3.960E+03	 5.083E+04	-4.379E+02
  59.700	 1.154E+01	-7.139E-01	-4.182E-02	 3.865E+03	 3.439E+01	 4.512E+00	-2.302E-01	 0.000E+00	 0.000E+00	 2.101E+02	 1.172E+01	 1.137E+03	 3.081E-01	-4.035E-02	 0.000E+00	-2.829E+02	 2.180E+03	 2.348E+02	 5.833E+01	 7.112E+02	-8.093E+02	 8.255E+03	 1.600E+01	 3.163E+03	 8.995E+02	-3.235E+02	 5.613E+02	-8.060E+00	-3.475E+03	 3.158E+03	 1.294E+03	-3.999E+02	 5.649E+02	-1.159E+01	-6.885E+03	 4.034E+03	 5.095E+04	-3.967E+02
  59.713	 1.152E+01	-6.870E-01	-1.414E-01	 3.861E+03	 3.437E+01	 4.535E+00	-2.223E-01	 0.000E+00	 0.000E+00	 2.110E+02	 1.172E+01	 1.137E+03	 3.081E-01	-4.046E-02	 0.000E+00	-2.929E+02	 2.190E+03	 2.327E+02	 6.191E+01	 7.097E+02	-8.853E+02	 8.224E+03	 1.475E+01	 3.163E+03	 8.726E+02	-3.638E+02	 5.594E+02	-7.274E+00	-3.475E+03	 3.160E+03	 1.291E+03	-3.574E+02	 5.679E+02	-1.369E+01	-6.885E+03	 4.102E+03	 5.103E+04	-3.543E+02
  59.725	 1.150E+01	-6.600E-01	-2.409E-01	 3.857E+03	 3.434E+01	 4.557E+00	-2.143E-01	 0.000E+00	 0.000E+00	 2.119E+02	 1.172E+01	 1.136E+03	 3.082E-01	-4.058E-02	 0.000E+00	-3.043E+02	 2.200E+03	 2.311E+02	 6.503E+01	 7.081E+02	-9.563E+02	 8.196E+03	 1.581E+01	 3.165E+03	 8.487E+02	-4.154E+02	 5.589E+02	-6.562E+00	-3.475E+03	 3.165E+03	 1.283E+03	-3.161E+02	 5.690E+02	-1.543E+01	-6.886E+03	 4.160E+03	 5.107E+04	-3.130E+02
  59.737	 1.149E+01	-6.331E-01	-3.404E-01	 3.853E+03	 3.431E+01	 4.579E+00	-2.062E-01	 0.000E+00	 0.000E+00	 2.128E+02	 1.171E+01	 1.136E+03	 3.083E-01	-4.069E-02	 0.000E+00	-3.151E+02	 2.207E+03	 2.306E+02	 6.818E+01	 7.064E+02	-1.028E+03	 8.184E+03	 1.945E+01	 3.171E+03	 8.321E+02	-4.599E+02	 5.596E+02	-6.017E+00	-3.476E+03	 3.173E+03	 1.274E+03	-2.706E+02	 5.686E+02	-1.673E+01	-6.887E+03	 4.205E+03	 5.107E+04	-2.675E+02
  59.750	 1.147E+01	-6.061E-01	-4.400E-01	 3.848E+03	 3.428E+01	 4.599E+00	-1.980E-01	 0.000E+00	 0.000E+00	 2.137E+02	 1.171E+01	 1.135E+03	 3.084E-01	-4.082E-02	 0.000E+00	-3.273E+02	 2.216E+03	 2.292E+02	 7.122E+01	 7.046E+02	-1.099E+03	 8.162E+03	 2.061E+01	 3.181E+03	 8.073E+02	-5.061E+02	 5.608E+02	-5.647E+00	-3.477E+03	 3.186E+03	 1.272E+03	-2.283E+02	 5.666E+02	-1.751E+01	-6.887E+03	 4.236E+03	 5.103E+04	-2.251E+02
  59.763	 1.142E+01	-6.086E-01	-4.408E-01	 3.844E+03	 3.425E+01	 4.619E+00	-1.895E-01	 0.000E+00	 0.000E+00	 2.145E+02	 1.171E+01	 1.135E+03	 3.085E-01	-4.095E-02	 0.000E+00	-3.396E+02	 2.224E+03	 2.288E+02	 7.410E+01	 7.026E+02	-1.167E+03	 8.155E+03	 2.061E+01	 3.193E+03	 7.939E+02	-5.384E+02	 5.628E+02	-5.532E+00	-3.477E+03	 3.201E+03	 1.272E+03	-1.844E+02	 5.633E+02	-1.768E+01	-6.888E+03	 4.252E+03	 5.096E+04	-1.812E+02
  59.775	 1.137E+01	-6.110E-01	-4.417E-01	 3.839E+03	 3.422E+01	 4.637E+00	-1.809E-01	 0.000E+00	 0.000E+00	 2.154E+02	 1.171E+01	 1.135E+03	 3.087E-01	-4.109E-02	 0.000E+00	-3.527E+02	 2.232E+03	 2.278E+02	 7.696E+01	 7.007E+02	-1.236E+03	 8.143E+03	 2.187E+01	 3.209E+03	 7.710E+02	-5.748E+02	 5.654E+02	-5.696E+00	-3.478E+03	 3.220E+03	 1.277E+03	-1.526E+02	 5.589E+02	-1.725E+01	-6.889E+03	 4.250E+03	 5.086E+04	-1.493E+02
  59.788	 1.132E+01	-6.134E-01	-4.425E-01	 3.834E+03	 3.418E+01	 4.653E+00	-1.720E-01	 0.000E+00	 0.000E+00	 2.163E+02	 1.171E+01	 1.135E+03	 3.089E-01	-4.123E-02	 0.000E+00	-3.665E+02	 2.238E+03	 2.272E+02	 7.966E+01	 6.986E+02	-1.303E+03	 8.139E+03	 2.368E+01	 3.226E+03	 7.596E+02	-6.134E+02	 5.690E+02	-6.123E+00	-3.480E+03	 3.240E+03	 1.274E+03	-1.238E+02	 5.532E+02	-1.616E+01	-6.890E+03	 4.232E+03	 5.072E+04	-1.206E+02
  59.800	 1.127E+01	-6.158E-01	-4.434E-01	 3.829E+03	 3.414E+01	 4.667E+00	-1.630E-01	 0.000E+00	 0.000E+00	 2.172E+02	 1.171E+01	 1.134E+03	 3.091E-01	-4.139E-02	 0.000E+00	-3.804E+02	 2.244E+03	 2.268E+02	 8.232E+01	 6.967E+02	-1.370E+03	 8.140E+03	 2.505E+01	 3.246E+03	 7.408E+02	-6.396E+02	 5.726E+02	-6.884E+00	-3.481E+03	 3.263E+03	 1.283E+03	-1.083E+02	 5.474E+02	-1.450E+01	-6.892E+03	 4.199E+03	 5.059E+04	-1.051E+02
  59.812	 1.128E+01	-5.807E-01	-3.173E-01	 3.825E+03	 3.411E+01	 4.680E+00	-1.539E-01	 0.000E+00	 0.000E+00	 2.180E+02	 1.171E+01	 1.134E+03	 3.093E-01	-4.155E-02	 0.000E+00	-3.943E+02	 2.248E+03	 2.266E+02	 8.503E+01	 6.948E+02	-1.438E+03	 8.148E+03	 2.705E+01	 3.266E+03	 7.258E+02	-6.666E+02	 5.765E+02	-7.912E+00	-3.483E+03	 3.286E+03	 1.288E+03	-9.904E+01	 5.412E+02	-1.229E+01	-6.893E+03	 4.152E+03	 5.045E+04	-9.578E+01
  59.825	 1.129E+01	-5.455E-01	-1.912E-01	 3.820E+03	 3.407E+01	 4.690E+00	-1.447E-01	 0.000E+00	 0.000E+00	 2.189E+02	 1.171E+01	 1.134E+03	 3.096E-01	-4.173E-02	 0.000E+00	-4.085E+02	 2.253E+03	 2.267E+02	 8.753E+01	 6.930E+02	-1.503E+03	 8.162E+03	 2.847E+01	 3.288E+03	 7.109E+02	-6.854E+02	 5.804E+02	-9.178E+00	-3.484E+03	 3.311E+03	 1.296E+03	-9.590E+01	 5.353E+02	-9.665E+00	-6.895E+03	 4.095E+03	 5.031E+04	-9.262E+01
  59.838	 1.131E+01	-5.103E-01	-6.516E-02	 3.816E+03	 3.403E+01	 4.699E+00	-1.355E-01	 0.000E+00	 0.000E+00	 2.198E+02	 1.171E+01	 1.134E+03	 3.099E-01	-4.191E-02	 0.000E+00	-4.222E+02	 2.256E+03	 2.274E+02	 9.000E+01	 6.911E+02	-1.568E+03	 8.182E+03	 3.014E+01	 3.310E+03	 7.054E+02	-7.008E+02	 5.843E+02	-1.063E+01	-3.486E+03	 3.335E+03	 1.299E+03	-9.710E+01	 5.296E+02	-6.698E+00	-6.897E+03	 4.029E+03	 5.019E+04	-9.381E+01
  59.850	 1.132E+01	-4.752E-01	 6.090E-02	 3.812E+03	 3.399E+01	 4.707E+00	-1.263E-01	 0.000E+00	 0.000E+00	 2.207E+02	 1.171E+01	 1.134E+03	 3.102E-01	-4.210E-02	 0.000E+00	-4.362E+02	 2.259E+03	 2.281E+02	 9.240E+01	 6.894E+02	-1.631E+03	 8.207E+03	 3.156E+01	 3.331E+03	 6.934E+02	-7.152E+02	 5.878E+02	-1.221E+01	-3.488E+03	 3.359E+03	 1.305E+03	-1.024E+02	 5.249E+02	-3.569E+00	-6.899E+03	 3.961E+03	 5.010E+04	-9.904E+01
  59.862	 1.126E+01	-4.761E-01	 2.673E-02	 3.808E+03	 3.396E+01	 4.713E+00	-1.171E-01	 0.000E+00	 0.000E+00	 2.216E+02	 1.171E+01	 1.134E+03	 3.105E-01	-4.230E-02	 0.000E+00	-4.497E+02	 2.261E+03	 2.283E+02	 9.512E+01	 6.874E+02	-1.696E+03	 8.234E+03	 3.355E+01	 3.351E+03	 6.846E+02	-7.018E+02	 5.900E+02	-1.391E+01	-3.490E+03	 3.381E+03	 1.324E+03	-1.077E+02	 5.216E+02	-4.149E-01	-6.900E+03	 3.892E+03	 5.004E+04	-1.043E+02
  59.875	 1.121E+01	-4.771E-01	-7.449E-03	 3.805E+03	 3.392E+01	 4.718E+00	-1.083E-01	 0.000E+00	 0.000E+00	 2.224E+02	 1.171E+01	 1.135E+03	 3.109E-01	-4.250E-02	 0.000E+00	-4.628E+02	 2.264E+03	 2.295E+02	 9.746E+01	 6.858E+02	-1.756E+03	 8.269E+03	 3.492E+01	 3.370E+03	 6.749E+02	-7.144E+02	 5.927E+02	-1.557E+01	-3.492E+03	 3.402E+03	 1.325E+03	-1.226E+02	 5.190E+02	 2.656E+00	-6.903E+03	 3.828E+03	 5.002E+04	-1.193E+02
  59.888	 1.115E+01	-4.781E-01	-4.162E-02	 3.802E+03	 3.389E+01	 4.722E+00	-9.956E-02	 0.000E+00	 0.000E+00	 2.233E+02	 1.171E+01	 1.135E+03	 3.112E-01	-4.272E-02	 0.000E+00	-4.743E+02	 2.264E+03	 2.300E+02	 1.004E+02	 6.842E+02	-1.822E+03	 8.300E+03	 3.513E+01	 3.386E+03	 6.548E+02	-7.137E+02	 5.940E+02	-1.716E+01	-3.494E+03	 3.421E+03	 1.336E+03	-1.328E+02	 5.183E+02	 5.421E+00	-6.905E+03	 3.774E+03	 5.004E+04	-1.295E+02
  59.900	 1.110E+01	-4.790E-01	-7.580E-02	 3.799E+03	 3.386E+01	 4.725E+00	-9.123E-02	 0.000E+00	 0.000E+00	 2.242E+02	 1.171E+01	 1.135E+03	 3.116E-01	-4.294E-02	 0.000E+00	-4.861E+02	 2.266E+03	 2.315E+02	 1.027E+02	 6.828E+02	-1.879E+03	 8.341E+03	 3.638E+01	 3.401E+03	 6.445E+02	-7.318E+02	 5.957E+02	-1.859E+01	-3.496E+03	 3.437E+03	 1.327E+03	-1.456E+02	 5.184E+02	 7.798E+00	-6.907E+03	 3.731E+03	 5.009E+04	-1.422E+02
  59.913	 1.108E+01	-4.627E-01	-2.058E-02	 3.797E+03	 3.383E+01	 4.728E+00	-8.322E-02	 0.000E+00	 0.000E+00	 2.251E+02	 1.172E+01	 1.135E+03	 3.121E-01	-4.318E-02	 0.000E+00	-4.963E+02	 2.268E+03	 2.339E+02	 1.050E+02	 6.813E+02	-1.936E+03	 8.392E+03	 4.019E+01	 3.413E+03	 6.412E+02	-7.639E+02	 5.973E+02	-1.975E+01	-3.499E+03	 3.451E+03	 1.302E+03	-1.494E+02	 5.197E+02	 9.614E+00	-6.910E+03	 3.706E+03	 5.017E+04	-1.460E+02
  59.925	 1.107E+01	-4.464E-01	 3.464E-02	 3.795E+03	 3.381E+01	 4.731E+00	-7.561E-02	 0.000E+00	 0.000E+00	 2.260E+02	 1.172E+01	 1.136E+03	 3.125E-01	-4.341E-02	 0.000E+00	-5.065E+02	 2.269E+03	 2.355E+02	 1.074E+02	 6.799E+02	-1.990E+03	 8.436E+03	 4.133E+01	 3.422E+03	 6.271E+02	-7.947E+02	 5.980E+02	-2.061E+01	-3.501E+03	 3.463E+03	 1.281E+03	-1.444E+02	 5.224E+02	 1.073E+01	-6.912E+03	 3.700E+03	 5.030E+04	-1.410E+02
  59.938	 1.105E+01	-4.301E-01	 8.985E-02	 3.794E+03	 3.378E+01	 4.734E+00	-6.840E-02	 0.000E+00	 0.000E+00	 2.268E+02	 1.172E+01	 1.136E+03	 3.130E-01	-4.366E-02	 0.000E+00	-5.160E+02	 2.272E+03	 2.362E+02	 1.099E+02	 6.787E+02	-2.046E+03	 8.468E+03	 4.239E+01	 3.430E+03	 5.889E+02	-8.278E+02	 5.976E+02	-2.113E+01	-3.504E+03	 3.474E+03	 1.270E+03	-1.266E+02	 5.269E+02	 1.107E+01	-6.915E+03	 3.716E+03	 5.048E+04	-1.231E+02
  59.950	 1.104E+01	-4.138E-01	 1.451E-01	 3.793E+03	 3.377E+01	 4.736E+00	-6.161E-02	 0.000E+00	 0.000E+00	 2.277E+02	 1.172E+01	 1.136E+03	 3.135E-01	-4.391E-02	 0.000E+00	-5.247E+02	 2.273E+03	 2.376E+02	 1.123E+02	 6.770E+02	-2.097E+03	 8.510E+03	 4.340E+01	 3.435E+03	 5.695E+02	-8.747E+02	 5.976E+02	-2.125E+01	-3.506E+03	 3.482E+03	 1.235E+03	-8.965E+01	 5.318E+02	 1.064E+01	-6.917E+03	 3.754E+03	 5.068E+04	-8.622E+01
  59.963	 1.113E+01	-4.498E-01	 4.401E-02	 3.793E+03	 3.375E+01	 4.739E+00	-5.524E-02	 0.000E+00	 0.000E+00	 2.286E+02	 1.172E+01	 1.137E+03	 3.140E-01	-4.417E-02	 0.000E+00	-5.337E+02	 2.278E+03	 2.394E+02	 1.142E+02	 6.750E+02	-2.141E+03	 8.552E+03	 4.473E+01	 3.438E+03	 5.519E+02	-9.104E+02	 5.969E+02	-2.104E+01	-3.508E+03	 3.487E+03	 1.208E+03	-4.416E+01	 5.378E+02	 9.444E+00	-6.918E+03	 3.815E+03	 5.091E+04	-4.071E+01
  59.975	 1.123E+01	-4.858E-01	-5.706E-02	 3.793E+03	 3.374E+01	 4.741E+00	-4.931E-02	 0.000E+00	 0.000E+00	 2.295E+02	 1.172E+01	 1.137E+03	 3.146E-01	-4.443E-02	 0.000E+00	-5.411E+02	 2.279E+03	 2.406E+02	 1.165E+02	 6.732E+02	-2.188E+03	 8.593E+03	 4.563E+01	 3.438E+03	 5.335E+02	-9.689E+02	 5.967E+02	-2.051E+01	-3.510E+03	 3.490E+03	 1.161E+03	 4.969E+00	 5.440E+02	 7.538E+00	-6.920E+03	 3.895E+03	 5.115E+04	 8.427E+00
  59.987	 1.132E+01	-5.218E-01	-1.581E-01	 3.793E+03	 3.373E+01	 4.744E+00	-4.381E-02	 0.000E+00	 0.000E+00	 2.303E+02	 1.172E+01	 1.137E+03	 3.152E-01	-4.470E-02	 0.000E+00	-5.496E+02	 2.285E+03	 2.405E+02	 1.185E+02	 6.712E+02	-2.230E+03	 8.610E+03	 4.704E+01	 3.435E+03	 5.083E+02	-1.029E+03	 5.961E+02	-1.971E+01	-3.511E+03	 3.489E+03	 1.117E+03	 5.382E+01	 5.505E+02	 5.014E+00	-6.922E+03	 3.994E+03	 5.140E+04	 5.729E+01
  60.000	 1.141E+01	-5.578E-01	-2.592E-01	 3.793E+03	 3.372E+01	 4.746E+00	-3.878E-02	 0.000E+00	 0.000E+00	 2.312E+02	 1.173E+01	 1.138E+03	 3.158E-01	-4.497E-02	 0.000E+00	-5.557E+02	 2.286E+03	 2.418E+02	 1.205E+02	 6.694E+02	-2.271E+03	 8.650E+03	 4.782E+01	 3.429E+03	 4.983E+02	-1.097E+03	 5.963E+02	-1.878E+01	-3.513E+03	 3.485E+03	 1.057E+03	 9.376E+01	 5.568E+02	 2.003E+00	-6.924E+03	 4.108E+03	 5.166E+04	 9.724E+01
  60.013	 1.142E+01	-6.645E-01	-1.275E-01	 3.794E+03	 3.372E+01	 4.748E+00	-3.420E-02	 0.000E+00	 0.000E+00	 2.321E+02	 1.173E+01	 1.138E+03	 3.165E-01	-4.525E-02	 0.000E+00	-5.619E+02	 2.290E+03	 2.435E+02	 1.221E+02	 6.677E+02	-2.304E+03	 8.691E+03	 5.173E+01	 3.420E+03	 4.899E+02	-1.169E+03	 5.969E+02	-1.773E+01	-3.514E+03	 3.476E+03	 9.945E+02	 1.225E+02	 5.630E+02	-1.376E+00	-6.925E+03	 4.233E+03	 5.191E+04	 1.260E+02
