
This summary file was generated by TurbSim (v2.00.01a-bjj, 14-Oct-2014) on 17-Jan-2016 at 17:39:32.


Runtime Options:

 745114648  Random seed #1
-154794614  Random seed #2
         F  Output binary HH turbulence parameters?
         F  Output formatted turbulence parameters?
         F  Output AeroDyn HH files?
         T  Output AeroDyn FF files?
         F  Output BLADED FF files?
         F  Output tower data?
         F  Output formatted FF files?
         F  Output coherent turbulence time step file?
         T  Clockwise rotation when looking downwind?
 0 -  NONE  IEC turbulence models scaled to exact specified standard deviation


Turbine/Model Specifications:

        17  Vertical grid-point matrix dimension
        17  Horizontal grid-point matrix dimension
     0.050  Time step [seconds]
   630.000  Analysis time [seconds]
   630.000  Usable output time [seconds]
    84.000  Hub height [m]
    80.000  Grid height [m]
    80.000  Grid width [m]
     0.000  Vertical flow angle [degrees]
     0.000  Horizontal flow angle [degrees]


Meteorological Boundary Conditions:

    USRINP  Uniform user-input spectral model
       N/A  IEC standard
       N/A  IEC turbulence characteristic
       N/A  IEC turbulence type
       N/A  IEC Extreme Turbulence Model (ETM) "c" parameter [m/s]
       PL   Wind profile type
   100.000  Reference height [m]
    17.200  Reference wind speed [m/s]
       N/A  Jet height [m]
     0.200  Power law exponent
     0.030  Surface roughness length [m]


Non-IEC Meteorological Boundary Conditions:

    45.000  Site latitude [degrees]
     0.050  Gradient Richardson number
     0.815  Friction or shear velocity [m/s]
       N/A  Mixing layer depth [m]
       N/A  Mean hub u'w' Reynolds stress
       N/A  Mean hub u'v' Reynolds stress
       N/A  Mean hub v'w' Reynolds stress


Spatial Coherence Models:

       IEC  u-component coherence model
      NONE  v-component coherence model
      NONE  w-component coherence model
(   12.000, 0.353E-03)  u-component coherence parameters
                   N/A  v-component coherence parameters
                   N/A  w-component coherence parameters
       N/A  Coherence exponent


You have requested that the following file(s) be generated:

   WP1.5A08V03\WP1.5A08V03_3.bts (AeroDyn/TurbSim full-field wind file)


Turbulence Simulation Scaling Parameter Summary:

   Turbulence model used                            =  Uniform user-input
   Gradient Richardson number                       =    0.050
   Monin-Obukhov (M-O) z/L parameter                =    0.067
   Monin-Obukhov (M-O) length scale                 = 1260.000 m
   Mean wind speed at hub height                    =   16.611 m/s

   Wind profile type                                =  Power law
   Power law exponent                               =    0.200
   Mean shear across rotor disk                     =    0.042 (m/s)/m
   Assumed rotor diameter                           =   80.000 m
   Surface roughness length                         =    0.030 m

   Nyquist frequency of turbulent wind field        =   10.000 Hz

   Number of time steps in the FFT                  =    12600
   Number of time steps output                      =    12600
   Number of points simulated                       =      289


Mean Flow Angles:

   Vertical   =   0.0 degrees
   Horizontal =   0.0 degrees

Mean Wind Speed Profile:

   Height    Wind Speed   Horizontal Angle  Vertical Angle  U-comp (X)   V-comp (Y)   W-comp (Z)
     (m)        (m/s)         (degrees)       (degrees)       (m/s)        (m/s)        (m/s)   
   ------    ----------   ----------------  --------------  ----------   ----------   ----------
    124.0       17.96            0.00            0.00         17.96         0.00         0.00
    119.0       17.81            0.00            0.00         17.81         0.00         0.00
    114.0       17.66            0.00            0.00         17.66         0.00         0.00
    109.0       17.50            0.00            0.00         17.50         0.00         0.00
    104.0       17.34            0.00            0.00         17.34         0.00         0.00
     99.0       17.17            0.00            0.00         17.17         0.00         0.00
     94.0       16.99            0.00            0.00         16.99         0.00         0.00
     89.0       16.80            0.00            0.00         16.80         0.00         0.00
     84.0       16.61            0.00            0.00         16.61         0.00         0.00
     79.0       16.41            0.00            0.00         16.41         0.00         0.00
     74.0       16.19            0.00            0.00         16.19         0.00         0.00
     69.0       15.97            0.00            0.00         15.97         0.00         0.00
     64.0       15.73            0.00            0.00         15.73         0.00         0.00
     59.0       15.48            0.00            0.00         15.48         0.00         0.00
     54.0       15.21            0.00            0.00         15.21         0.00         0.00
     49.0       14.91            0.00            0.00         14.91         0.00         0.00
     44.0       14.60            0.00            0.00         14.60         0.00         0.00


Harvested Random Seeds after Generation of the Random Numbers:

       790330 Harvested seed # 1
    307301209 Harvested seed # 2


Hub-Height Simulated Turbulence Statistical Summary:

   Type of Wind        Min (m/s)   Mean (m/s)    Max (m/s)  Sigma (m/s)       TI (%)
   ----------------    ---------   ----------    ---------  -----------       ------
   Longitudinal (u)         9.88        16.61        22.99        2.177       13.105
   Lateral (v)             -6.22         0.00         5.70        1.680       10.114
   Vertical (w)            -3.61        -0.00         3.39        1.050        6.321
   U component              9.88        16.61        22.99        2.177       13.105
   V component             -6.22         0.00         5.70        1.680       10.114
   W component             -3.61        -0.00         3.39        1.050        6.321
   Horizontal (U&V)        10.11        16.70        23.02        2.157       12.917
   Total                   10.11        16.73        23.10        2.152       12.864

                       Min Reynolds     Mean Reynolds    Max Reynolds    Correlation
   Product             Stress (m/s)^2   Stress (m/s)^2   Stress (m/s)^2  Coefficient
   ----------------    --------------   --------------   --------------  -----------
   u'w'                    -11.550             0.049            19.217         0.021
   u'v'                    -22.544            -0.139            25.138        -0.038
   v'w'                    -11.939            -0.102            11.275        -0.058


   Friction Velocity (Ustar)  =      0.221 m/s
   Maximum Instantaneous TKE  =     29.312 (m/s)^2
   Maximum Instantaneous CTKE =     15.375 (m/s)^2


Grid Point Variance Summary:

   Y-coord  -40.00  -35.00  -30.00  -25.00  -20.00  -15.00  -10.00   -5.00    0.00    5.00   10.00   15.00   20.00   25.00   30.00   35.00   40.00

   Height   Standard deviation at grid points for the u component:
   124.00    2.152   2.128   2.069   2.099   2.132   2.030   2.033   2.067   2.212   2.166   2.204   2.301   2.274   2.341   2.270   2.334   2.385
   119.00    2.121   2.099   2.090   2.064   2.083   2.077   2.066   1.988   2.077   2.117   2.119   2.149   2.144   2.228   2.246   2.268   2.352
   114.00    2.013   2.032   2.091   2.145   1.973   1.964   1.982   2.034   2.044   2.087   2.145   2.138   2.114   2.143   2.215   2.248   2.382
   109.00    1.976   2.028   2.103   2.096   2.079   2.001   2.029   2.005   2.050   2.068   2.088   2.004   2.068   2.043   2.234   2.297   2.342
   104.00    1.996   1.935   2.001   2.086   1.976   2.018   2.007   2.031   2.053   1.979   1.995   2.050   1.974   2.088   2.255   2.255   2.313
    99.00    1.942   1.847   2.016   2.019   2.025   2.152   2.155   2.033   1.996   1.956   1.892   2.046   2.053   2.099   2.181   2.229   2.255
    94.00    2.012   2.021   2.030   1.985   2.001   2.182   2.048   1.997   2.013   1.913   1.961   2.007   1.988   2.111   2.125   2.087   2.200
    89.00    1.967   2.029   2.026   2.007   2.008   1.990   1.988   2.022   2.032   1.993   2.020   2.081   2.063   2.176   2.218   2.198   2.134
    84.00    2.091   2.139   2.121   2.110   2.061   2.061   2.041   2.104   2.177   2.027   2.020   2.085   2.109   2.137   2.072   2.070   2.106
    79.00    2.081   2.146   2.208   2.211   2.121   2.104   2.182   2.136   2.140   2.063   2.135   2.152   2.185   2.032   2.026   2.064   2.056
    74.00    2.054   2.164   2.258   2.286   2.175   2.163   2.171   2.136   2.209   2.159   2.133   2.162   2.253   2.112   1.988   2.019   2.060
    69.00    2.024   2.167   2.177   2.320   2.275   2.199   2.168   2.232   2.162   2.116   2.162   2.168   2.207   2.173   2.109   2.031   2.034
    64.00    2.111   2.166   2.192   2.222   2.265   2.294   2.209   2.163   2.097   2.047   2.179   2.161   2.218   2.155   2.157   2.055   2.102
    59.00    2.065   2.100   2.233   2.190   2.163   2.185   2.116   2.018   2.091   2.137   2.159   2.233   2.251   2.192   2.207   2.106   2.146
    54.00    2.205   2.115   2.088   2.165   2.075   2.145   2.129   2.125   2.189   2.216   2.210   2.219   2.165   2.258   2.191   2.195   2.155
    49.00    2.180   2.176   2.127   2.118   2.214   2.186   2.149   2.192   2.256   2.214   2.166   2.262   2.212   2.272   2.168   2.228   2.128
    44.00    2.100   2.117   2.155   2.242   2.218   2.235   2.212   2.204   2.254   2.260   2.110   2.178   2.160   2.189   2.187   2.227   2.203

   Height   Standard deviation at grid points for the v component:
   124.00    1.680   1.680   1.680   1.680   1.680   1.680   1.680   1.680   1.680   1.680   1.680   1.680   1.680   1.680   1.680   1.680   1.680
   119.00    1.680   1.680   1.680   1.680   1.680   1.680   1.680   1.680   1.680   1.680   1.680   1.680   1.680   1.680   1.680   1.680   1.680
   114.00    1.680   1.680   1.680   1.680   1.680   1.680   1.680   1.680   1.680   1.680   1.680   1.680   1.680   1.680   1.680   1.680   1.680
   109.00    1.680   1.680   1.680   1.680   1.680   1.680   1.680   1.680   1.680   1.680   1.680   1.680   1.680   1.680   1.680   1.680   1.680
   104.00    1.680   1.680   1.680   1.680   1.680   1.680   1.680   1.680   1.680   1.680   1.680   1.680   1.680   1.680   1.680   1.680   1.680
    99.00    1.680   1.680   1.680   1.680   1.680   1.680   1.680   1.680   1.680   1.680   1.680   1.680   1.680   1.680   1.680   1.680   1.680
    94.00    1.680   1.680   1.680   1.680   1.680   1.680   1.680   1.680   1.680   1.680   1.680   1.680   1.680   1.680   1.680   1.680   1.680
    89.00    1.680   1.680   1.680   1.680   1.680   1.680   1.680   1.680   1.680   1.680   1.680   1.680   1.680   1.680   1.680   1.680   1.680
    84.00    1.680   1.680   1.680   1.680   1.680   1.680   1.680   1.680   1.680   1.680   1.680   1.680   1.680   1.680   1.680   1.680   1.680
    79.00    1.680   1.680   1.680   1.680   1.680   1.680   1.680   1.680   1.680   1.680   1.680   1.680   1.680   1.680   1.680   1.680   1.680
    74.00    1.680   1.680   1.680   1.680   1.680   1.680   1.680   1.680   1.680   1.680   1.680   1.680   1.680   1.680   1.680   1.680   1.680
    69.00    1.680   1.680   1.680   1.680   1.680   1.680   1.680   1.680   1.680   1.680   1.680   1.680   1.680   1.680   1.680   1.680   1.680
    64.00    1.680   1.680   1.680   1.680   1.680   1.680   1.680   1.680   1.680   1.680   1.680   1.680   1.680   1.680   1.680   1.680   1.680
    59.00    1.680   1.680   1.680   1.680   1.680   1.680   1.680   1.680   1.680   1.680   1.680   1.680   1.680   1.680   1.680   1.680   1.680
    54.00    1.680   1.680   1.680   1.680   1.680   1.680   1.680   1.680   1.680   1.680   1.680   1.680   1.680   1.680   1.680   1.680   1.680
    49.00    1.680   1.680   1.680   1.680   1.680   1.680   1.680   1.680   1.680   1.680   1.680   1.680   1.680   1.680   1.680   1.680   1.680
    44.00    1.680   1.680   1.680   1.680   1.680   1.680   1.680   1.680   1.680   1.680   1.680   1.680   1.680   1.680   1.680   1.680   1.680

   Height   Standard deviation at grid points for the w component:
   124.00    1.050   1.050   1.050   1.050   1.050   1.050   1.050   1.050   1.050   1.050   1.050   1.050   1.050   1.050   1.050   1.050   1.050
   119.00    1.050   1.050   1.050   1.050   1.050   1.050   1.050   1.050   1.050   1.050   1.050   1.050   1.050   1.050   1.050   1.050   1.050
   114.00    1.050   1.050   1.050   1.050   1.050   1.050   1.050   1.050   1.050   1.050   1.050   1.050   1.050   1.050   1.050   1.050   1.050
   109.00    1.050   1.050   1.050   1.050   1.050   1.050   1.050   1.050   1.050   1.050   1.050   1.050   1.050   1.050   1.050   1.050   1.050
   104.00    1.050   1.050   1.050   1.050   1.050   1.050   1.050   1.050   1.050   1.050   1.050   1.050   1.050   1.050   1.050   1.050   1.050
    99.00    1.050   1.050   1.050   1.050   1.050   1.050   1.050   1.050   1.050   1.050   1.050   1.050   1.050   1.050   1.050   1.050   1.050
    94.00    1.050   1.050   1.050   1.050   1.050   1.050   1.050   1.050   1.050   1.050   1.050   1.050   1.050   1.050   1.050   1.050   1.050
    89.00    1.050   1.050   1.050   1.050   1.050   1.050   1.050   1.050   1.050   1.050   1.050   1.050   1.050   1.050   1.050   1.050   1.050
    84.00    1.050   1.050   1.050   1.050   1.050   1.050   1.050   1.050   1.050   1.050   1.050   1.050   1.050   1.050   1.050   1.050   1.050
    79.00    1.050   1.050   1.050   1.050   1.050   1.050   1.050   1.050   1.050   1.050   1.050   1.050   1.050   1.050   1.050   1.050   1.050
    74.00    1.050   1.050   1.050   1.050   1.050   1.050   1.050   1.050   1.050   1.050   1.050   1.050   1.050   1.050   1.050   1.050   1.050
    69.00    1.050   1.050   1.050   1.050   1.050   1.050   1.050   1.050   1.050   1.050   1.050   1.050   1.050   1.050   1.050   1.050   1.050
    64.00    1.050   1.050   1.050   1.050   1.050   1.050   1.050   1.050   1.050   1.050   1.050   1.050   1.050   1.050   1.050   1.050   1.050
    59.00    1.050   1.050   1.050   1.050   1.050   1.050   1.050   1.050   1.050   1.050   1.050   1.050   1.050   1.050   1.050   1.050   1.050
    54.00    1.050   1.050   1.050   1.050   1.050   1.050   1.050   1.050   1.050   1.050   1.050   1.050   1.050   1.050   1.050   1.050   1.050
    49.00    1.050   1.050   1.050   1.050   1.050   1.050   1.050   1.050   1.050   1.050   1.050   1.050   1.050   1.050   1.050   1.050   1.050
    44.00    1.050   1.050   1.050   1.050   1.050   1.050   1.050   1.050   1.050   1.050   1.050   1.050   1.050   1.050   1.050   1.050   1.050

   Mean standard deviation across all grid points:
      u component:    2.124 m/s
      v component:    1.680 m/s
      w component:    1.050 m/s


U-component (X) statistics from the interpolated hub point:

   Mean =  16.6106 m/s
   TI   =  13.1045 %


Processing complete.  13.681 CPU seconds used.
