
This summary file was generated by TurbSim (v2.00.01a-bjj, 14-Oct-2014) on 17-Jan-2016 at 17:35:28.


Runtime Options:

 745114648  Random seed #1
-154794614  Random seed #2
         F  Output binary HH turbulence parameters?
         F  Output formatted turbulence parameters?
         F  Output AeroDyn HH files?
         T  Output AeroDyn FF files?
         F  Output BLADED FF files?
         F  Output tower data?
         F  Output formatted FF files?
         F  Output coherent turbulence time step file?
         T  Clockwise rotation when looking downwind?
 0 -  NONE  IEC turbulence models scaled to exact specified standard deviation


Turbine/Model Specifications:

        17  Vertical grid-point matrix dimension
        17  Horizontal grid-point matrix dimension
     0.050  Time step [seconds]
   630.000  Analysis time [seconds]
   630.000  Usable output time [seconds]
    84.000  Hub height [m]
    80.000  Grid height [m]
    80.000  Grid width [m]
     0.000  Vertical flow angle [degrees]
     0.000  Horizontal flow angle [degrees]


Meteorological Boundary Conditions:

    USRINP  Uniform user-input spectral model
       N/A  IEC standard
       N/A  IEC turbulence characteristic
       N/A  IEC turbulence type
       N/A  IEC Extreme Turbulence Model (ETM) "c" parameter [m/s]
       PL   Wind profile type
   100.000  Reference height [m]
     7.100  Reference wind speed [m/s]
       N/A  Jet height [m]
     0.200  Power law exponent
     0.030  Surface roughness length [m]


Non-IEC Meteorological Boundary Conditions:

    45.000  Site latitude [degrees]
     0.050  Gradient Richardson number
     0.336  Friction or shear velocity [m/s]
       N/A  Mixing layer depth [m]
       N/A  Mean hub u'w' Reynolds stress
       N/A  Mean hub u'v' Reynolds stress
       N/A  Mean hub v'w' Reynolds stress


Spatial Coherence Models:

       IEC  u-component coherence model
      NONE  v-component coherence model
      NONE  w-component coherence model
(   12.000, 0.353E-03)  u-component coherence parameters
                   N/A  v-component coherence parameters
                   N/A  w-component coherence parameters
       N/A  Coherence exponent


You have requested that the following file(s) be generated:

   WP1.5A08V03\WP1.5A08V03_1.bts (AeroDyn/TurbSim full-field wind file)


Turbulence Simulation Scaling Parameter Summary:

   Turbulence model used                            =  Uniform user-input
   Gradient Richardson number                       =    0.050
   Monin-Obukhov (M-O) z/L parameter                =    0.067
   Monin-Obukhov (M-O) length scale                 = 1260.000 m
   Mean wind speed at hub height                    =    6.857 m/s

   Wind profile type                                =  Power law
   Power law exponent                               =    0.200
   Mean shear across rotor disk                     =    0.017 (m/s)/m
   Assumed rotor diameter                           =   80.000 m
   Surface roughness length                         =    0.030 m

   Nyquist frequency of turbulent wind field        =   10.000 Hz

   Number of time steps in the FFT                  =    12600
   Number of time steps output                      =    12600
   Number of points simulated                       =      289


Mean Flow Angles:

   Vertical   =   0.0 degrees
   Horizontal =   0.0 degrees

Mean Wind Speed Profile:

   Height    Wind Speed   Horizontal Angle  Vertical Angle  U-comp (X)   V-comp (Y)   W-comp (Z)
     (m)        (m/s)         (degrees)       (degrees)       (m/s)        (m/s)        (m/s)   
   ------    ----------   ----------------  --------------  ----------   ----------   ----------
    124.0        7.41            0.00            0.00          7.41         0.00         0.00
    119.0        7.35            0.00            0.00          7.35         0.00         0.00
    114.0        7.29            0.00            0.00          7.29         0.00         0.00
    109.0        7.22            0.00            0.00          7.22         0.00         0.00
    104.0        7.16            0.00            0.00          7.16         0.00         0.00
     99.0        7.09            0.00            0.00          7.09         0.00         0.00
     94.0        7.01            0.00            0.00          7.01         0.00         0.00
     89.0        6.94            0.00            0.00          6.94         0.00         0.00
     84.0        6.86            0.00            0.00          6.86         0.00         0.00
     79.0        6.77            0.00            0.00          6.77         0.00         0.00
     74.0        6.69            0.00            0.00          6.69         0.00         0.00
     69.0        6.59            0.00            0.00          6.59         0.00         0.00
     64.0        6.49            0.00            0.00          6.49         0.00         0.00
     59.0        6.39            0.00            0.00          6.39         0.00         0.00
     54.0        6.28            0.00            0.00          6.28         0.00         0.00
     49.0        6.16            0.00            0.00          6.16         0.00         0.00
     44.0        6.02            0.00            0.00          6.02         0.00         0.00


Harvested Random Seeds after Generation of the Random Numbers:

       790330 Harvested seed # 1
    307301209 Harvested seed # 2


Hub-Height Simulated Turbulence Statistical Summary:

   Type of Wind        Min (m/s)   Mean (m/s)    Max (m/s)  Sigma (m/s)       TI (%)
   ----------------    ---------   ----------    ---------  -----------       ------
   Longitudinal (u)        -0.01         6.86        12.71        2.085       30.401
   Lateral (v)             -5.87         0.00         5.62        1.680       24.503
   Vertical (w)            -4.44         0.00         3.31        1.050       15.313
   U component             -0.01         6.86        12.71        2.085       30.401
   V component             -5.87         0.00         5.62        1.680       24.503
   W component             -4.44         0.00         3.31        1.050       15.313
   Horizontal (U&V)         0.52         7.09        13.11        1.977       27.887
   Total                    0.60         7.17        13.16        1.957       27.287

                       Min Reynolds     Mean Reynolds    Max Reynolds    Correlation
   Product             Stress (m/s)^2   Stress (m/s)^2   Stress (m/s)^2  Coefficient
   ----------------    --------------   --------------   --------------  -----------
   u'w'                    -11.547             0.241            22.761         0.110
   u'v'                    -29.227            -0.058            24.162        -0.017
   v'w'                    -21.804            -0.161            10.101        -0.091


   Friction Velocity (Ustar)  =      0.491 m/s
   Maximum Instantaneous TKE  =     37.744 (m/s)^2
   Maximum Instantaneous CTKE =     21.492 (m/s)^2


Grid Point Variance Summary:

   Y-coord  -40.00  -35.00  -30.00  -25.00  -20.00  -15.00  -10.00   -5.00    0.00    5.00   10.00   15.00   20.00   25.00   30.00   35.00   40.00

   Height   Standard deviation at grid points for the u component:
   124.00    1.972   2.032   2.017   1.990   2.116   1.985   2.018   2.098   2.286   2.190   2.245   2.359   2.366   2.461   2.359   2.439   2.499
   119.00    2.071   2.041   1.972   2.000   2.042   1.947   1.964   1.985   2.066   2.116   2.146   2.185   2.193   2.231   2.304   2.414   2.479
   114.00    1.916   1.957   1.977   2.084   1.872   1.823   1.913   2.029   2.061   2.087   2.143   2.146   2.155   2.140   2.284   2.366   2.505
   109.00    1.808   1.959   1.975   1.974   2.033   1.858   1.903   1.946   2.049   2.080   2.016   1.943   2.016   1.962   2.242   2.333   2.447
   104.00    1.844   1.721   1.902   1.900   1.872   1.899   1.858   1.918   2.029   1.837   1.844   1.934   1.801   2.030   2.263   2.324   2.484
    99.00    1.807   1.663   1.932   1.862   1.895   2.024   1.980   1.871   1.884   1.792   1.759   1.868   1.902   2.004   2.195   2.302   2.341
    94.00    1.981   1.956   1.923   1.960   1.899   2.115   1.860   1.840   1.920   1.794   1.810   1.928   1.837   2.081   2.113   2.046   2.214
    89.00    1.899   2.034   1.923   2.056   2.012   1.883   1.799   1.888   1.869   1.893   1.900   2.057   1.899   2.162   2.266   2.211   2.237
    84.00    2.031   2.017   2.102   2.101   1.991   1.987   1.946   1.977   2.085   1.840   2.005   2.081   2.076   2.198   2.036   2.017   2.107
    79.00    2.046   2.043   2.216   2.175   2.024   2.041   2.082   2.043   1.949   1.912   2.106   2.111   2.167   2.004   1.988   2.087   2.014
    74.00    2.044   2.117   2.187   2.279   2.113   2.087   2.153   2.009   2.080   1.967   2.018   2.143   2.268   2.046   1.938   1.998   1.976
    69.00    2.039   2.178   2.109   2.373   2.260   2.235   2.131   2.202   2.128   2.040   2.088   2.088   2.080   2.136   2.057   1.919   1.855
    64.00    2.210   2.214   2.142   2.217   2.291   2.325   2.172   2.120   1.984   2.002   2.145   2.106   2.138   2.123   2.070   1.994   1.909
    59.00    2.140   2.155   2.243   2.121   2.105   2.162   2.032   1.883   2.021   2.056   2.086   2.198   2.283   2.281   2.199   2.121   2.028
    54.00    2.205   2.158   1.958   2.014   1.919   2.085   2.103   2.079   2.202   2.159   2.088   2.165   2.101   2.301   2.320   2.194   2.032
    49.00    2.175   2.136   1.978   1.942   2.070   2.057   2.099   2.102   2.299   2.123   2.135   2.243   2.229   2.367   2.259   2.292   2.160
    44.00    2.101   2.000   2.109   2.144   2.103   2.100   2.154   2.165   2.245   2.327   2.112   2.226   2.140   2.253   2.270   2.370   2.282

   Height   Standard deviation at grid points for the v component:
   124.00    1.680   1.680   1.680   1.680   1.680   1.680   1.680   1.680   1.680   1.680   1.680   1.680   1.680   1.680   1.680   1.680   1.680
   119.00    1.680   1.680   1.680   1.680   1.680   1.680   1.680   1.680   1.680   1.680   1.680   1.680   1.680   1.680   1.680   1.680   1.680
   114.00    1.680   1.680   1.680   1.680   1.680   1.680   1.680   1.680   1.680   1.680   1.680   1.680   1.680   1.680   1.680   1.680   1.680
   109.00    1.680   1.680   1.680   1.680   1.680   1.680   1.680   1.680   1.680   1.680   1.680   1.680   1.680   1.680   1.680   1.680   1.680
   104.00    1.680   1.680   1.680   1.680   1.680   1.680   1.680   1.680   1.680   1.680   1.680   1.680   1.680   1.680   1.680   1.680   1.680
    99.00    1.680   1.680   1.680   1.680   1.680   1.680   1.680   1.680   1.680   1.680   1.680   1.680   1.680   1.680   1.680   1.680   1.680
    94.00    1.680   1.680   1.680   1.680   1.680   1.680   1.680   1.680   1.680   1.680   1.680   1.680   1.680   1.680   1.680   1.680   1.680
    89.00    1.680   1.680   1.680   1.680   1.680   1.680   1.680   1.680   1.680   1.680   1.680   1.680   1.680   1.680   1.680   1.680   1.680
    84.00    1.680   1.680   1.680   1.680   1.680   1.680   1.680   1.680   1.680   1.680   1.680   1.680   1.680   1.680   1.680   1.680   1.680
    79.00    1.680   1.680   1.680   1.680   1.680   1.680   1.680   1.680   1.680   1.680   1.680   1.680   1.680   1.680   1.680   1.680   1.680
    74.00    1.680   1.680   1.680   1.680   1.680   1.680   1.680   1.680   1.680   1.680   1.680   1.680   1.680   1.680   1.680   1.680   1.680
    69.00    1.680   1.680   1.680   1.680   1.680   1.680   1.680   1.680   1.680   1.680   1.680   1.680   1.680   1.680   1.680   1.680   1.680
    64.00    1.680   1.680   1.680   1.680   1.680   1.680   1.680   1.680   1.680   1.680   1.680   1.680   1.680   1.680   1.680   1.680   1.680
    59.00    1.680   1.680   1.680   1.680   1.680   1.680   1.680   1.680   1.680   1.680   1.680   1.680   1.680   1.680   1.680   1.680   1.680
    54.00    1.680   1.680   1.680   1.680   1.680   1.680   1.680   1.680   1.680   1.680   1.680   1.680   1.680   1.680   1.680   1.680   1.680
    49.00    1.680   1.680   1.680   1.680   1.680   1.680   1.680   1.680   1.680   1.680   1.680   1.680   1.680   1.680   1.680   1.680   1.680
    44.00    1.680   1.680   1.680   1.680   1.680   1.680   1.680   1.680   1.680   1.680   1.680   1.680   1.680   1.680   1.680   1.680   1.680

   Height   Standard deviation at grid points for the w component:
   124.00    1.050   1.050   1.050   1.050   1.050   1.050   1.050   1.050   1.050   1.050   1.050   1.050   1.050   1.050   1.050   1.050   1.050
   119.00    1.050   1.050   1.050   1.050   1.050   1.050   1.050   1.050   1.050   1.050   1.050   1.050   1.050   1.050   1.050   1.050   1.050
   114.00    1.050   1.050   1.050   1.050   1.050   1.050   1.050   1.050   1.050   1.050   1.050   1.050   1.050   1.050   1.050   1.050   1.050
   109.00    1.050   1.050   1.050   1.050   1.050   1.050   1.050   1.050   1.050   1.050   1.050   1.050   1.050   1.050   1.050   1.050   1.050
   104.00    1.050   1.050   1.050   1.050   1.050   1.050   1.050   1.050   1.050   1.050   1.050   1.050   1.050   1.050   1.050   1.050   1.050
    99.00    1.050   1.050   1.050   1.050   1.050   1.050   1.050   1.050   1.050   1.050   1.050   1.050   1.050   1.050   1.050   1.050   1.050
    94.00    1.050   1.050   1.050   1.050   1.050   1.050   1.050   1.050   1.050   1.050   1.050   1.050   1.050   1.050   1.050   1.050   1.050
    89.00    1.050   1.050   1.050   1.050   1.050   1.050   1.050   1.050   1.050   1.050   1.050   1.050   1.050   1.050   1.050   1.050   1.050
    84.00    1.050   1.050   1.050   1.050   1.050   1.050   1.050   1.050   1.050   1.050   1.050   1.050   1.050   1.050   1.050   1.050   1.050
    79.00    1.050   1.050   1.050   1.050   1.050   1.050   1.050   1.050   1.050   1.050   1.050   1.050   1.050   1.050   1.050   1.050   1.050
    74.00    1.050   1.050   1.050   1.050   1.050   1.050   1.050   1.050   1.050   1.050   1.050   1.050   1.050   1.050   1.050   1.050   1.050
    69.00    1.050   1.050   1.050   1.050   1.050   1.050   1.050   1.050   1.050   1.050   1.050   1.050   1.050   1.050   1.050   1.050   1.050
    64.00    1.050   1.050   1.050   1.050   1.050   1.050   1.050   1.050   1.050   1.050   1.050   1.050   1.050   1.050   1.050   1.050   1.050
    59.00    1.050   1.050   1.050   1.050   1.050   1.050   1.050   1.050   1.050   1.050   1.050   1.050   1.050   1.050   1.050   1.050   1.050
    54.00    1.050   1.050   1.050   1.050   1.050   1.050   1.050   1.050   1.050   1.050   1.050   1.050   1.050   1.050   1.050   1.050   1.050
    49.00    1.050   1.050   1.050   1.050   1.050   1.050   1.050   1.050   1.050   1.050   1.050   1.050   1.050   1.050   1.050   1.050   1.050
    44.00    1.050   1.050   1.050   1.050   1.050   1.050   1.050   1.050   1.050   1.050   1.050   1.050   1.050   1.050   1.050   1.050   1.050

   Mean standard deviation across all grid points:
      u component:    2.078 m/s
      v component:    1.680 m/s
      w component:    1.050 m/s


U-component (X) statistics from the interpolated hub point:

   Mean =   6.8567 m/s
   TI   =  30.4013 %


Processing complete.  13.291 CPU seconds used.
