
This summary file was generated by TurbSim (v2.00.01a-bjj, 14-Oct-2014) on 17-Jan-2016 at 17:41:22.


Runtime Options:

 745114648  Random seed #1
-154794614  Random seed #2
         F  Output binary HH turbulence parameters?
         F  Output formatted turbulence parameters?
         F  Output AeroDyn HH files?
         T  Output AeroDyn FF files?
         F  Output BLADED FF files?
         F  Output tower data?
         F  Output formatted FF files?
         F  Output coherent turbulence time step file?
         T  Clockwise rotation when looking downwind?
 0 -  NONE  IEC turbulence models scaled to exact specified standard deviation


Turbine/Model Specifications:

        17  Vertical grid-point matrix dimension
        17  Horizontal grid-point matrix dimension
     0.050  Time step [seconds]
   630.000  Analysis time [seconds]
   630.000  Usable output time [seconds]
    84.000  Hub height [m]
    80.000  Grid height [m]
    80.000  Grid width [m]
     0.000  Vertical flow angle [degrees]
     0.000  Horizontal flow angle [degrees]


Meteorological Boundary Conditions:

    USRINP  Uniform user-input spectral model
       N/A  IEC standard
       N/A  IEC turbulence characteristic
       N/A  IEC turbulence type
       N/A  IEC Extreme Turbulence Model (ETM) "c" parameter [m/s]
       PL   Wind profile type
   100.000  Reference height [m]
    17.200  Reference wind speed [m/s]
       N/A  Jet height [m]
     0.200  Power law exponent
     0.030  Surface roughness length [m]


Non-IEC Meteorological Boundary Conditions:

    45.000  Site latitude [degrees]
     0.050  Gradient Richardson number
     0.815  Friction or shear velocity [m/s]
       N/A  Mixing layer depth [m]
       N/A  Mean hub u'w' Reynolds stress
       N/A  Mean hub u'v' Reynolds stress
       N/A  Mean hub v'w' Reynolds stress


Spatial Coherence Models:

       IEC  u-component coherence model
      NONE  v-component coherence model
      NONE  w-component coherence model
(   12.000, 0.353E-03)  u-component coherence parameters
                   N/A  v-component coherence parameters
                   N/A  w-component coherence parameters
       N/A  Coherence exponent


You have requested that the following file(s) be generated:

   WP1.5A08V03\WP1.5A08V03_4.bts (AeroDyn/TurbSim full-field wind file)


Turbulence Simulation Scaling Parameter Summary:

   Turbulence model used                            =  Uniform user-input
   Gradient Richardson number                       =    0.050
   Monin-Obukhov (M-O) z/L parameter                =    0.067
   Monin-Obukhov (M-O) length scale                 = 1260.000 m
   Mean wind speed at hub height                    =   16.611 m/s

   Wind profile type                                =  Power law
   Power law exponent                               =    0.200
   Mean shear across rotor disk                     =    0.042 (m/s)/m
   Assumed rotor diameter                           =   80.000 m
   Surface roughness length                         =    0.030 m

   Nyquist frequency of turbulent wind field        =   10.000 Hz

   Number of time steps in the FFT                  =    12600
   Number of time steps output                      =    12600
   Number of points simulated                       =      289


Mean Flow Angles:

   Vertical   =   0.0 degrees
   Horizontal =   0.0 degrees

Mean Wind Speed Profile:

   Height    Wind Speed   Horizontal Angle  Vertical Angle  U-comp (X)   V-comp (Y)   W-comp (Z)
     (m)        (m/s)         (degrees)       (degrees)       (m/s)        (m/s)        (m/s)   
   ------    ----------   ----------------  --------------  ----------   ----------   ----------
    124.0       17.96            0.00            0.00         17.96         0.00         0.00
    119.0       17.81            0.00            0.00         17.81         0.00         0.00
    114.0       17.66            0.00            0.00         17.66         0.00         0.00
    109.0       17.50            0.00            0.00         17.50         0.00         0.00
    104.0       17.34            0.00            0.00         17.34         0.00         0.00
     99.0       17.17            0.00            0.00         17.17         0.00         0.00
     94.0       16.99            0.00            0.00         16.99         0.00         0.00
     89.0       16.80            0.00            0.00         16.80         0.00         0.00
     84.0       16.61            0.00            0.00         16.61         0.00         0.00
     79.0       16.41            0.00            0.00         16.41         0.00         0.00
     74.0       16.19            0.00            0.00         16.19         0.00         0.00
     69.0       15.97            0.00            0.00         15.97         0.00         0.00
     64.0       15.73            0.00            0.00         15.73         0.00         0.00
     59.0       15.48            0.00            0.00         15.48         0.00         0.00
     54.0       15.21            0.00            0.00         15.21         0.00         0.00
     49.0       14.91            0.00            0.00         14.91         0.00         0.00
     44.0       14.60            0.00            0.00         14.60         0.00         0.00


Harvested Random Seeds after Generation of the Random Numbers:

       790330 Harvested seed # 1
    307301209 Harvested seed # 2


Hub-Height Simulated Turbulence Statistical Summary:

   Type of Wind        Min (m/s)   Mean (m/s)    Max (m/s)  Sigma (m/s)       TI (%)
   ----------------    ---------   ----------    ---------  -----------       ------
   Longitudinal (u)         8.95        16.61        22.83        2.111       12.708
   Lateral (v)             -6.87         0.00         6.07        1.680       10.114
   Vertical (w)            -4.85        -0.00         3.40        1.050        6.321
   U component              8.95        16.61        22.83        2.111       12.708
   V component             -6.87         0.00         6.07        1.680       10.114
   W component             -4.85        -0.00         3.40        1.050        6.321
   Horizontal (U&V)         8.96        16.70        22.83        2.095       12.546
   Total                    8.96        16.73        22.87        2.091       12.496

                       Min Reynolds     Mean Reynolds    Max Reynolds    Correlation
   Product             Stress (m/s)^2   Stress (m/s)^2   Stress (m/s)^2  Coefficient
   ----------------    --------------   --------------   --------------  -----------
   u'w'                    -14.855             0.120            27.593         0.054
   u'v'                    -35.535             0.009            24.180         0.002
   v'w'                    -24.773            -0.115            12.411        -0.065


   Friction Velocity (Ustar)  =      0.347 m/s
   Maximum Instantaneous TKE  =     45.359 (m/s)^2
   Maximum Instantaneous CTKE =     25.680 (m/s)^2


Grid Point Variance Summary:

   Y-coord  -40.00  -35.00  -30.00  -25.00  -20.00  -15.00  -10.00   -5.00    0.00    5.00   10.00   15.00   20.00   25.00   30.00   35.00   40.00

   Height   Standard deviation at grid points for the u component:
   124.00    2.017   2.076   2.065   2.069   2.165   2.050   2.075   2.133   2.264   2.209   2.158   2.236   2.242   2.318   2.243   2.306   2.368
   119.00    2.078   2.079   2.041   2.040   2.094   2.020   2.033   2.013   2.096   2.127   2.110   2.106   2.127   2.189   2.197   2.256   2.361
   114.00    1.973   2.055   2.038   2.111   1.971   1.920   1.955   2.044   2.102   2.091   2.115   2.113   2.116   2.119   2.193   2.243   2.351
   109.00    1.931   2.046   2.063   2.045   2.097   1.950   2.020   2.021   2.096   2.081   2.065   2.035   2.050   2.010   2.169   2.252   2.315
   104.00    2.004   1.936   2.033   2.024   2.006   2.003   1.984   2.045   2.079   1.989   1.949   2.024   1.950   2.057   2.196   2.227   2.335
    99.00    1.942   1.849   2.047   2.030   2.021   2.139   2.113   1.995   1.989   1.919   1.875   2.000   2.019   2.082   2.172   2.221   2.265
    94.00    2.040   2.056   2.093   2.105   2.043   2.198   2.029   1.966   1.995   1.886   1.908   2.006   1.947   2.144   2.148   2.092   2.205
    89.00    1.965   2.108   2.098   2.170   2.129   2.015   1.980   2.033   1.987   1.941   1.943   2.046   1.978   2.173   2.254   2.228   2.182
    84.00    2.080   2.143   2.217   2.239   2.100   2.093   2.052   2.081   2.111   1.942   1.998   2.054   2.112   2.163   2.085   2.077   2.111
    79.00    2.097   2.150   2.283   2.282   2.149   2.112   2.145   2.114   2.043   1.985   2.069   2.112   2.158   2.039   2.053   2.077   2.015
    74.00    2.109   2.218   2.281   2.339   2.183   2.174   2.193   2.101   2.117   2.011   2.007   2.123   2.187   2.074   1.955   1.977   1.981
    69.00    2.127   2.221   2.248   2.380   2.290   2.269   2.169   2.184   2.116   2.044   2.084   2.089   2.079   2.115   2.055   1.956   1.924
    64.00    2.210   2.233   2.237   2.255   2.299   2.328   2.179   2.084   2.025   2.037   2.123   2.134   2.140   2.110   2.065   1.992   1.977
    59.00    2.139   2.175   2.265   2.164   2.174   2.200   2.110   1.983   2.057   2.062   2.095   2.170   2.220   2.191   2.157   2.091   2.093
    54.00    2.185   2.146   2.058   2.112   2.069   2.115   2.154   2.113   2.143   2.116   2.093   2.108   2.083   2.234   2.229   2.136   2.090
    49.00    2.164   2.128   2.031   2.025   2.136   2.097   2.105   2.116   2.223   2.125   2.116   2.185   2.178   2.274   2.227   2.219   2.147
    44.00    2.100   2.053   2.078   2.122   2.117   2.157   2.181   2.185   2.197   2.247   2.135   2.192   2.150   2.228   2.212   2.281   2.224

   Height   Standard deviation at grid points for the v component:
   124.00    1.680   1.680   1.680   1.680   1.680   1.680   1.680   1.680   1.680   1.680   1.680   1.680   1.680   1.680   1.680   1.680   1.680
   119.00    1.680   1.680   1.680   1.680   1.680   1.680   1.680   1.680   1.680   1.680   1.680   1.680   1.680   1.680   1.680   1.680   1.680
   114.00    1.680   1.680   1.680   1.680   1.680   1.680   1.680   1.680   1.680   1.680   1.680   1.680   1.680   1.680   1.680   1.680   1.680
   109.00    1.680   1.680   1.680   1.680   1.680   1.680   1.680   1.680   1.680   1.680   1.680   1.680   1.680   1.680   1.680   1.680   1.680
   104.00    1.680   1.680   1.680   1.680   1.680   1.680   1.680   1.680   1.680   1.680   1.680   1.680   1.680   1.680   1.680   1.680   1.680
    99.00    1.680   1.680   1.680   1.680   1.680   1.680   1.680   1.680   1.680   1.680   1.680   1.680   1.680   1.680   1.680   1.680   1.680
    94.00    1.680   1.680   1.680   1.680   1.680   1.680   1.680   1.680   1.680   1.680   1.680   1.680   1.680   1.680   1.680   1.680   1.680
    89.00    1.680   1.680   1.680   1.680   1.680   1.680   1.680   1.680   1.680   1.680   1.680   1.680   1.680   1.680   1.680   1.680   1.680
    84.00    1.680   1.680   1.680   1.680   1.680   1.680   1.680   1.680   1.680   1.680   1.680   1.680   1.680   1.680   1.680   1.680   1.680
    79.00    1.680   1.680   1.680   1.680   1.680   1.680   1.680   1.680   1.680   1.680   1.680   1.680   1.680   1.680   1.680   1.680   1.680
    74.00    1.680   1.680   1.680   1.680   1.680   1.680   1.680   1.680   1.680   1.680   1.680   1.680   1.680   1.680   1.680   1.680   1.680
    69.00    1.680   1.680   1.680   1.680   1.680   1.680   1.680   1.680   1.680   1.680   1.680   1.680   1.680   1.680   1.680   1.680   1.680
    64.00    1.680   1.680   1.680   1.680   1.680   1.680   1.680   1.680   1.680   1.680   1.680   1.680   1.680   1.680   1.680   1.680   1.680
    59.00    1.680   1.680   1.680   1.680   1.680   1.680   1.680   1.680   1.680   1.680   1.680   1.680   1.680   1.680   1.680   1.680   1.680
    54.00    1.680   1.680   1.680   1.680   1.680   1.680   1.680   1.680   1.680   1.680   1.680   1.680   1.680   1.680   1.680   1.680   1.680
    49.00    1.680   1.680   1.680   1.680   1.680   1.680   1.680   1.680   1.680   1.680   1.680   1.680   1.680   1.680   1.680   1.680   1.680
    44.00    1.680   1.680   1.680   1.680   1.680   1.680   1.680   1.680   1.680   1.680   1.680   1.680   1.680   1.680   1.680   1.680   1.680

   Height   Standard deviation at grid points for the w component:
   124.00    1.050   1.050   1.050   1.050   1.050   1.050   1.050   1.050   1.050   1.050   1.050   1.050   1.050   1.050   1.050   1.050   1.050
   119.00    1.050   1.050   1.050   1.050   1.050   1.050   1.050   1.050   1.050   1.050   1.050   1.050   1.050   1.050   1.050   1.050   1.050
   114.00    1.050   1.050   1.050   1.050   1.050   1.050   1.050   1.050   1.050   1.050   1.050   1.050   1.050   1.050   1.050   1.050   1.050
   109.00    1.050   1.050   1.050   1.050   1.050   1.050   1.050   1.050   1.050   1.050   1.050   1.050   1.050   1.050   1.050   1.050   1.050
   104.00    1.050   1.050   1.050   1.050   1.050   1.050   1.050   1.050   1.050   1.050   1.050   1.050   1.050   1.050   1.050   1.050   1.050
    99.00    1.050   1.050   1.050   1.050   1.050   1.050   1.050   1.050   1.050   1.050   1.050   1.050   1.050   1.050   1.050   1.050   1.050
    94.00    1.050   1.050   1.050   1.050   1.050   1.050   1.050   1.050   1.050   1.050   1.050   1.050   1.050   1.050   1.050   1.050   1.050
    89.00    1.050   1.050   1.050   1.050   1.050   1.050   1.050   1.050   1.050   1.050   1.050   1.050   1.050   1.050   1.050   1.050   1.050
    84.00    1.050   1.050   1.050   1.050   1.050   1.050   1.050   1.050   1.050   1.050   1.050   1.050   1.050   1.050   1.050   1.050   1.050
    79.00    1.050   1.050   1.050   1.050   1.050   1.050   1.050   1.050   1.050   1.050   1.050   1.050   1.050   1.050   1.050   1.050   1.050
    74.00    1.050   1.050   1.050   1.050   1.050   1.050   1.050   1.050   1.050   1.050   1.050   1.050   1.050   1.050   1.050   1.050   1.050
    69.00    1.050   1.050   1.050   1.050   1.050   1.050   1.050   1.050   1.050   1.050   1.050   1.050   1.050   1.050   1.050   1.050   1.050
    64.00    1.050   1.050   1.050   1.050   1.050   1.050   1.050   1.050   1.050   1.050   1.050   1.050   1.050   1.050   1.050   1.050   1.050
    59.00    1.050   1.050   1.050   1.050   1.050   1.050   1.050   1.050   1.050   1.050   1.050   1.050   1.050   1.050   1.050   1.050   1.050
    54.00    1.050   1.050   1.050   1.050   1.050   1.050   1.050   1.050   1.050   1.050   1.050   1.050   1.050   1.050   1.050   1.050   1.050
    49.00    1.050   1.050   1.050   1.050   1.050   1.050   1.050   1.050   1.050   1.050   1.050   1.050   1.050   1.050   1.050   1.050   1.050
    44.00    1.050   1.050   1.050   1.050   1.050   1.050   1.050   1.050   1.050   1.050   1.050   1.050   1.050   1.050   1.050   1.050   1.050

   Mean standard deviation across all grid points:
      u component:    2.109 m/s
      v component:    1.680 m/s
      w component:    1.050 m/s


U-component (X) statistics from the interpolated hub point:

   Mean =  16.6106 m/s
   TI   =  12.7079 %


Processing complete.  13.135 CPU seconds used.
