
This summary file was generated by TurbSim (v2.00.01a-bjj, 14-Oct-2014) on 14-Jan-2016 at 10:34:49.


Runtime Options:

 338713836  Random seed #1
**********  Random seed #2
         F  Output binary HH turbulence parameters?
         F  Output formatted turbulence parameters?
         F  Output AeroDyn HH files?
         T  Output AeroDyn FF files?
         F  Output BLADED FF files?
         F  Output tower data?
         F  Output formatted FF files?
         F  Output coherent turbulence time step file?
         T  Clockwise rotation when looking downwind?
 0 -  NONE  IEC turbulence models scaled to exact specified standard deviation


Turbine/Model Specifications:

        17  Vertical grid-point matrix dimension
        17  Horizontal grid-point matrix dimension
     0.050  Time step [seconds]
   630.000  Analysis time [seconds]
   630.000  Usable output time [seconds]
    84.000  Hub height [m]
    80.000  Grid height [m]
    80.000  Grid width [m]
     0.000  Vertical flow angle [degrees]
     0.000  Horizontal flow angle [degrees]


Meteorological Boundary Conditions:

    USRINP  Uniform user-input spectral model
       N/A  IEC standard
       N/A  IEC turbulence characteristic
       N/A  IEC turbulence type
       N/A  IEC Extreme Turbulence Model (ETM) "c" parameter [m/s]
       PL   Wind profile type
   100.000  Reference height [m]
    15.200  Reference wind speed [m/s]
       N/A  Jet height [m]
     0.200  Power law exponent
     0.030  Surface roughness length [m]


Non-IEC Meteorological Boundary Conditions:

    45.000  Site latitude [degrees]
     0.050  Gradient Richardson number
     0.720  Friction or shear velocity [m/s]
       N/A  Mixing layer depth [m]
       N/A  Mean hub u'w' Reynolds stress
       N/A  Mean hub u'v' Reynolds stress
       N/A  Mean hub v'w' Reynolds stress


Spatial Coherence Models:

       IEC  u-component coherence model
      NONE  v-component coherence model
      NONE  w-component coherence model
(   12.000, 0.353E-03)  u-component coherence parameters
                   N/A  v-component coherence parameters
                   N/A  w-component coherence parameters
       N/A  Coherence exponent


You have requested that the following file(s) be generated:

   WP1.5A08V03\WP1.5A08V03_2.bts (AeroDyn/TurbSim full-field wind file)


Turbulence Simulation Scaling Parameter Summary:

   Turbulence model used                            =  Uniform user-input
   Gradient Richardson number                       =    0.050
   Monin-Obukhov (M-O) z/L parameter                =    0.067
   Monin-Obukhov (M-O) length scale                 = 1260.000 m
   Mean wind speed at hub height                    =   14.679 m/s

   Wind profile type                                =  Power law
   Power law exponent                               =    0.200
   Mean shear across rotor disk                     =    0.037 (m/s)/m
   Assumed rotor diameter                           =   80.000 m
   Surface roughness length                         =    0.030 m

   Nyquist frequency of turbulent wind field        =   10.000 Hz

   Number of time steps in the FFT                  =    12600
   Number of time steps output                      =    12600
   Number of points simulated                       =      289


Mean Flow Angles:

   Vertical   =   0.0 degrees
   Horizontal =   0.0 degrees

Mean Wind Speed Profile:

   Height    Wind Speed   Horizontal Angle  Vertical Angle  U-comp (X)   V-comp (Y)   W-comp (Z)
     (m)        (m/s)         (degrees)       (degrees)       (m/s)        (m/s)        (m/s)   
   ------    ----------   ----------------  --------------  ----------   ----------   ----------
    124.0       15.87            0.00            0.00         15.87         0.00         0.00
    119.0       15.74            0.00            0.00         15.74         0.00         0.00
    114.0       15.60            0.00            0.00         15.60         0.00         0.00
    109.0       15.46            0.00            0.00         15.46         0.00         0.00
    104.0       15.32            0.00            0.00         15.32         0.00         0.00
     99.0       15.17            0.00            0.00         15.17         0.00         0.00
     94.0       15.01            0.00            0.00         15.01         0.00         0.00
     89.0       14.85            0.00            0.00         14.85         0.00         0.00
     84.0       14.68            0.00            0.00         14.68         0.00         0.00
     79.0       14.50            0.00            0.00         14.50         0.00         0.00
     74.0       14.31            0.00            0.00         14.31         0.00         0.00
     69.0       14.11            0.00            0.00         14.11         0.00         0.00
     64.0       13.90            0.00            0.00         13.90         0.00         0.00
     59.0       13.68            0.00            0.00         13.68         0.00         0.00
     54.0       13.44            0.00            0.00         13.44         0.00         0.00
     49.0       13.18            0.00            0.00         13.18         0.00         0.00
     44.0       12.90            0.00            0.00         12.90         0.00         0.00


Harvested Random Seeds after Generation of the Random Numbers:

   1247049433 Harvested seed # 1
    996679849 Harvested seed # 2


Hub-Height Simulated Turbulence Statistical Summary:

   Type of Wind        Min (m/s)   Mean (m/s)    Max (m/s)  Sigma (m/s)       TI (%)
   ----------------    ---------   ----------    ---------  -----------       ------
   Longitudinal (u)         8.34        14.68        24.19        2.103       14.323
   Lateral (v)             -7.32        -0.00         7.98        1.680       11.445
   Vertical (w)            -5.01        -0.00         4.69        1.050        7.153
   U component              8.34        14.68        24.19        2.103       14.323
   V component             -7.32        -0.00         7.98        1.680       11.445
   W component             -5.01        -0.00         4.69        1.050        7.153
   Horizontal (U&V)         8.50        14.77        24.22        2.108       14.270
   Total                    8.53        14.81        24.30        2.109       14.239

                       Min Reynolds     Mean Reynolds    Max Reynolds    Correlation
   Product             Stress (m/s)^2   Stress (m/s)^2   Stress (m/s)^2  Coefficient
   ----------------    --------------   --------------   --------------  -----------
   u'w'                    -24.230            -0.001            22.364        -0.001
   u'v'                    -18.605             0.949            32.335         0.269
   v'w'                    -23.448             0.087            14.856         0.049


   Friction Velocity (Ustar)  =      0.036 m/s
   Maximum Instantaneous TKE  =     47.856 (m/s)^2
   Maximum Instantaneous CTKE =     16.853 (m/s)^2


Grid Point Variance Summary:

   Y-coord  -40.00  -35.00  -30.00  -25.00  -20.00  -15.00  -10.00   -5.00    0.00    5.00   10.00   15.00   20.00   25.00   30.00   35.00   40.00

   Height   Standard deviation at grid points for the u component:
   124.00    1.957   2.032   2.021   1.965   2.074   2.072   2.096   2.146   2.029   2.100   2.080   1.936   1.915   1.960   2.083   1.990   1.920
   119.00    2.020   2.097   2.085   2.054   2.159   2.122   2.067   2.185   2.059   1.987   2.205   2.032   1.969   2.022   1.985   2.029   1.942
   114.00    2.001   2.060   2.004   1.975   2.026   2.034   1.981   2.105   2.047   2.131   2.148   2.102   2.107   2.168   1.976   1.915   1.946
   109.00    2.071   2.117   2.005   1.920   1.929   2.134   2.062   2.021   2.050   2.134   2.118   2.196   2.275   2.262   2.143   2.021   1.996
   104.00    2.182   2.071   2.040   1.997   1.952   2.147   2.080   1.987   2.037   2.071   2.201   2.291   2.200   2.180   2.153   2.095   2.030
    99.00    2.093   2.068   1.962   1.948   2.105   2.137   1.964   2.055   2.007   1.968   2.151   2.205   2.261   2.192   2.137   2.041   1.929
    94.00    2.043   2.000   1.924   1.820   2.003   2.027   1.983   1.920   2.003   1.979   1.981   2.139   2.137   2.090   2.053   2.035   1.973
    89.00    2.047   2.006   1.907   1.891   2.026   2.002   2.037   2.001   2.025   2.013   2.014   2.124   2.097   2.052   1.963   2.020   1.935
    84.00    1.871   1.949   1.936   1.964   1.921   2.057   2.025   1.976   2.103   2.081   2.083   2.049   2.053   2.037   2.029   1.956   2.048
    79.00    1.875   1.898   1.908   1.929   1.907   2.035   2.094   1.950   1.970   2.018   1.930   1.934   1.908   1.989   1.950   1.962   1.951
    74.00    1.858   1.925   1.902   1.894   1.992   1.947   2.046   2.024   1.936   2.043   1.947   1.861   1.913   1.968   1.895   1.953   1.899
    69.00    1.872   1.837   1.860   1.935   1.928   1.884   1.915   1.983   2.076   2.066   2.003   2.023   1.980   1.979   1.959   1.881   1.836
    64.00    1.802   1.868   1.922   1.922   1.873   1.818   1.941   1.990   2.044   2.058   1.949   1.950   1.923   2.061   1.900   1.860   1.826
    59.00    1.932   1.787   1.811   1.904   1.913   1.989   1.981   2.055   2.022   1.926   1.934   1.909   2.003   2.088   1.997   1.843   1.837
    54.00    1.890   1.867   1.857   1.938   1.967   1.992   2.006   1.972   1.989   1.990   2.012   1.969   2.031   1.970   1.942   1.909   1.941
    49.00    1.877   1.945   1.963   1.906   1.958   2.005   1.998   1.916   1.796   1.952   1.952   1.951   1.936   1.887   1.828   1.889   1.847
    44.00    2.100   2.092   2.065   2.044   1.957   2.001   1.941   1.845   1.957   1.885   1.888   1.893   1.849   1.843   1.844   1.792   1.780

   Height   Standard deviation at grid points for the v component:
   124.00    1.680   1.680   1.680   1.680   1.680   1.680   1.680   1.680   1.680   1.680   1.680   1.680   1.680   1.680   1.680   1.680   1.680
   119.00    1.680   1.680   1.680   1.680   1.680   1.680   1.680   1.680   1.680   1.680   1.680   1.680   1.680   1.680   1.680   1.680   1.680
   114.00    1.680   1.680   1.680   1.680   1.680   1.680   1.680   1.680   1.680   1.680   1.680   1.680   1.680   1.680   1.680   1.680   1.680
   109.00    1.680   1.680   1.680   1.680   1.680   1.680   1.680   1.680   1.680   1.680   1.680   1.680   1.680   1.680   1.680   1.680   1.680
   104.00    1.680   1.680   1.680   1.680   1.680   1.680   1.680   1.680   1.680   1.680   1.680   1.680   1.680   1.680   1.680   1.680   1.680
    99.00    1.680   1.680   1.680   1.680   1.680   1.680   1.680   1.680   1.680   1.680   1.680   1.680   1.680   1.680   1.680   1.680   1.680
    94.00    1.680   1.680   1.680   1.680   1.680   1.680   1.680   1.680   1.680   1.680   1.680   1.680   1.680   1.680   1.680   1.680   1.680
    89.00    1.680   1.680   1.680   1.680   1.680   1.680   1.680   1.680   1.680   1.680   1.680   1.680   1.680   1.680   1.680   1.680   1.680
    84.00    1.680   1.680   1.680   1.680   1.680   1.680   1.680   1.680   1.680   1.680   1.680   1.680   1.680   1.680   1.680   1.680   1.680
    79.00    1.680   1.680   1.680   1.680   1.680   1.680   1.680   1.680   1.680   1.680   1.680   1.680   1.680   1.680   1.680   1.680   1.680
    74.00    1.680   1.680   1.680   1.680   1.680   1.680   1.680   1.680   1.680   1.680   1.680   1.680   1.680   1.680   1.680   1.680   1.680
    69.00    1.680   1.680   1.680   1.680   1.680   1.680   1.680   1.680   1.680   1.680   1.680   1.680   1.680   1.680   1.680   1.680   1.680
    64.00    1.680   1.680   1.680   1.680   1.680   1.680   1.680   1.680   1.680   1.680   1.680   1.680   1.680   1.680   1.680   1.680   1.680
    59.00    1.680   1.680   1.680   1.680   1.680   1.680   1.680   1.680   1.680   1.680   1.680   1.680   1.680   1.680   1.680   1.680   1.680
    54.00    1.680   1.680   1.680   1.680   1.680   1.680   1.680   1.680   1.680   1.680   1.680   1.680   1.680   1.680   1.680   1.680   1.680
    49.00    1.680   1.680   1.680   1.680   1.680   1.680   1.680   1.680   1.680   1.680   1.680   1.680   1.680   1.680   1.680   1.680   1.680
    44.00    1.680   1.680   1.680   1.680   1.680   1.680   1.680   1.680   1.680   1.680   1.680   1.680   1.680   1.680   1.680   1.680   1.680

   Height   Standard deviation at grid points for the w component:
   124.00    1.050   1.050   1.050   1.050   1.050   1.050   1.050   1.050   1.050   1.050   1.050   1.050   1.050   1.050   1.050   1.050   1.050
   119.00    1.050   1.050   1.050   1.050   1.050   1.050   1.050   1.050   1.050   1.050   1.050   1.050   1.050   1.050   1.050   1.050   1.050
   114.00    1.050   1.050   1.050   1.050   1.050   1.050   1.050   1.050   1.050   1.050   1.050   1.050   1.050   1.050   1.050   1.050   1.050
   109.00    1.050   1.050   1.050   1.050   1.050   1.050   1.050   1.050   1.050   1.050   1.050   1.050   1.050   1.050   1.050   1.050   1.050
   104.00    1.050   1.050   1.050   1.050   1.050   1.050   1.050   1.050   1.050   1.050   1.050   1.050   1.050   1.050   1.050   1.050   1.050
    99.00    1.050   1.050   1.050   1.050   1.050   1.050   1.050   1.050   1.050   1.050   1.050   1.050   1.050   1.050   1.050   1.050   1.050
    94.00    1.050   1.050   1.050   1.050   1.050   1.050   1.050   1.050   1.050   1.050   1.050   1.050   1.050   1.050   1.050   1.050   1.050
    89.00    1.050   1.050   1.050   1.050   1.050   1.050   1.050   1.050   1.050   1.050   1.050   1.050   1.050   1.050   1.050   1.050   1.050
    84.00    1.050   1.050   1.050   1.050   1.050   1.050   1.050   1.050   1.050   1.050   1.050   1.050   1.050   1.050   1.050   1.050   1.050
    79.00    1.050   1.050   1.050   1.050   1.050   1.050   1.050   1.050   1.050   1.050   1.050   1.050   1.050   1.050   1.050   1.050   1.050
    74.00    1.050   1.050   1.050   1.050   1.050   1.050   1.050   1.050   1.050   1.050   1.050   1.050   1.050   1.050   1.050   1.050   1.050
    69.00    1.050   1.050   1.050   1.050   1.050   1.050   1.050   1.050   1.050   1.050   1.050   1.050   1.050   1.050   1.050   1.050   1.050
    64.00    1.050   1.050   1.050   1.050   1.050   1.050   1.050   1.050   1.050   1.050   1.050   1.050   1.050   1.050   1.050   1.050   1.050
    59.00    1.050   1.050   1.050   1.050   1.050   1.050   1.050   1.050   1.050   1.050   1.050   1.050   1.050   1.050   1.050   1.050   1.050
    54.00    1.050   1.050   1.050   1.050   1.050   1.050   1.050   1.050   1.050   1.050   1.050   1.050   1.050   1.050   1.050   1.050   1.050
    49.00    1.050   1.050   1.050   1.050   1.050   1.050   1.050   1.050   1.050   1.050   1.050   1.050   1.050   1.050   1.050   1.050   1.050
    44.00    1.050   1.050   1.050   1.050   1.050   1.050   1.050   1.050   1.050   1.050   1.050   1.050   1.050   1.050   1.050   1.050   1.050

   Mean standard deviation across all grid points:
      u component:    1.994 m/s
      v component:    1.680 m/s
      w component:    1.050 m/s


U-component (X) statistics from the interpolated hub point:

   Mean =  14.6791 m/s
   TI   =  14.3232 %


Processing complete.  12.886 CPU seconds used.
