
This summary file was generated by TurbSim (v2.00.01a-bjj, 14-Oct-2014) on 17-Jan-2016 at 17:43:27.


Runtime Options:

 745114648  Random seed #1
-154794614  Random seed #2
         F  Output binary HH turbulence parameters?
         F  Output formatted turbulence parameters?
         F  Output AeroDyn HH files?
         T  Output AeroDyn FF files?
         F  Output BLADED FF files?
         F  Output tower data?
         F  Output formatted FF files?
         F  Output coherent turbulence time step file?
         T  Clockwise rotation when looking downwind?
 0 -  NONE  IEC turbulence models scaled to exact specified standard deviation


Turbine/Model Specifications:

        17  Vertical grid-point matrix dimension
        17  Horizontal grid-point matrix dimension
     0.050  Time step [seconds]
   630.000  Analysis time [seconds]
   630.000  Usable output time [seconds]
    84.000  Hub height [m]
    80.000  Grid height [m]
    80.000  Grid width [m]
     0.000  Vertical flow angle [degrees]
     0.000  Horizontal flow angle [degrees]


Meteorological Boundary Conditions:

    USRINP  Uniform user-input spectral model
       N/A  IEC standard
       N/A  IEC turbulence characteristic
       N/A  IEC turbulence type
       N/A  IEC Extreme Turbulence Model (ETM) "c" parameter [m/s]
       PL   Wind profile type
   100.000  Reference height [m]
    17.200  Reference wind speed [m/s]
       N/A  Jet height [m]
     0.200  Power law exponent
     0.030  Surface roughness length [m]


Non-IEC Meteorological Boundary Conditions:

    45.000  Site latitude [degrees]
     0.050  Gradient Richardson number
     0.815  Friction or shear velocity [m/s]
       N/A  Mixing layer depth [m]
       N/A  Mean hub u'w' Reynolds stress
       N/A  Mean hub u'v' Reynolds stress
       N/A  Mean hub v'w' Reynolds stress


Spatial Coherence Models:

       IEC  u-component coherence model
      NONE  v-component coherence model
      NONE  w-component coherence model
(   12.000, 0.353E-03)  u-component coherence parameters
                   N/A  v-component coherence parameters
                   N/A  w-component coherence parameters
       N/A  Coherence exponent


You have requested that the following file(s) be generated:

   WP1.5A08V03\WP1.5A08V03_5.bts (AeroDyn/TurbSim full-field wind file)


Turbulence Simulation Scaling Parameter Summary:

   Turbulence model used                            =  Uniform user-input
   Gradient Richardson number                       =    0.050
   Monin-Obukhov (M-O) z/L parameter                =    0.067
   Monin-Obukhov (M-O) length scale                 = 1260.000 m
   Mean wind speed at hub height                    =   16.611 m/s

   Wind profile type                                =  Power law
   Power law exponent                               =    0.200
   Mean shear across rotor disk                     =    0.042 (m/s)/m
   Assumed rotor diameter                           =   80.000 m
   Surface roughness length                         =    0.030 m

   Nyquist frequency of turbulent wind field        =   10.000 Hz

   Number of time steps in the FFT                  =    12600
   Number of time steps output                      =    12600
   Number of points simulated                       =      289


Mean Flow Angles:

   Vertical   =   0.0 degrees
   Horizontal =   0.0 degrees

Mean Wind Speed Profile:

   Height    Wind Speed   Horizontal Angle  Vertical Angle  U-comp (X)   V-comp (Y)   W-comp (Z)
     (m)        (m/s)         (degrees)       (degrees)       (m/s)        (m/s)        (m/s)   
   ------    ----------   ----------------  --------------  ----------   ----------   ----------
    124.0       17.96            0.00            0.00         17.96         0.00         0.00
    119.0       17.81            0.00            0.00         17.81         0.00         0.00
    114.0       17.66            0.00            0.00         17.66         0.00         0.00
    109.0       17.50            0.00            0.00         17.50         0.00         0.00
    104.0       17.34            0.00            0.00         17.34         0.00         0.00
     99.0       17.17            0.00            0.00         17.17         0.00         0.00
     94.0       16.99            0.00            0.00         16.99         0.00         0.00
     89.0       16.80            0.00            0.00         16.80         0.00         0.00
     84.0       16.61            0.00            0.00         16.61         0.00         0.00
     79.0       16.41            0.00            0.00         16.41         0.00         0.00
     74.0       16.19            0.00            0.00         16.19         0.00         0.00
     69.0       15.97            0.00            0.00         15.97         0.00         0.00
     64.0       15.73            0.00            0.00         15.73         0.00         0.00
     59.0       15.48            0.00            0.00         15.48         0.00         0.00
     54.0       15.21            0.00            0.00         15.21         0.00         0.00
     49.0       14.91            0.00            0.00         14.91         0.00         0.00
     44.0       14.60            0.00            0.00         14.60         0.00         0.00


Harvested Random Seeds after Generation of the Random Numbers:

       790330 Harvested seed # 1
    307301209 Harvested seed # 2


Hub-Height Simulated Turbulence Statistical Summary:

   Type of Wind        Min (m/s)   Mean (m/s)    Max (m/s)  Sigma (m/s)       TI (%)
   ----------------    ---------   ----------    ---------  -----------       ------
   Longitudinal (u)        10.03        16.61        24.02        2.076       12.495
   Lateral (v)             -6.05         0.00         7.10        1.680       10.114
   Vertical (w)            -4.35        -0.00         4.15        1.050        6.321
   U component             10.03        16.61        24.02        2.076       12.495
   V component             -6.05         0.00         7.10        1.680       10.114
   W component             -4.35        -0.00         4.15        1.050        6.321
   Horizontal (U&V)        10.27        16.70        24.20        2.061       12.340
   Total                   10.27        16.73        24.31        2.057       12.294

                       Min Reynolds     Mean Reynolds    Max Reynolds    Correlation
   Product             Stress (m/s)^2   Stress (m/s)^2   Stress (m/s)^2  Coefficient
   ----------------    --------------   --------------   --------------  -----------
   u'w'                    -21.776             0.063            18.962         0.029
   u'v'                    -31.522             0.182            31.476         0.052
   v'w'                    -20.638             0.107            18.611         0.061


   Friction Velocity (Ustar)  =      0.251 m/s
   Maximum Instantaneous TKE  =     34.488 (m/s)^2
   Maximum Instantaneous CTKE =     16.958 (m/s)^2


Grid Point Variance Summary:

   Y-coord  -40.00  -35.00  -30.00  -25.00  -20.00  -15.00  -10.00   -5.00    0.00    5.00   10.00   15.00   20.00   25.00   30.00   35.00   40.00

   Height   Standard deviation at grid points for the u component:
   124.00    2.014   2.111   2.070   2.077   2.127   2.103   2.124   2.190   2.205   2.135   2.131   2.157   2.165   2.282   2.247   2.293   2.232
   119.00    2.070   2.076   2.029   2.006   2.121   2.108   2.158   2.157   2.086   2.098   2.080   2.067   2.156   2.152   2.190   2.308   2.315
   114.00    2.012   2.161   2.080   2.088   1.969   2.087   2.043   2.100   2.121   2.154   2.169   2.068   2.089   2.112   2.264   2.260   2.301
   109.00    1.997   2.148   2.061   2.029   2.094   2.033   2.062   2.039   2.099   2.079   2.014   2.052   1.993   2.015   2.161   2.200   2.206
   104.00    2.014   1.882   1.990   2.082   2.057   2.042   2.023   2.026   1.969   1.981   1.967   1.959   1.981   2.018   2.120   2.194   2.243
    99.00    2.021   1.935   2.082   2.052   2.085   2.106   2.053   1.967   1.912   1.928   1.961   1.922   2.007   2.019   2.123   2.201   2.125
    94.00    2.057   2.040   2.071   2.142   2.112   2.175   2.016   1.957   1.951   1.927   1.923   1.991   1.938   1.997   2.105   2.056   2.112
    89.00    2.079   2.111   2.078   2.228   2.244   2.144   2.048   2.000   1.921   1.924   1.920   1.995   1.888   2.064   2.139   2.098   2.127
    84.00    2.121   2.086   2.137   2.243   2.257   2.220   2.105   2.036   2.076   1.903   1.967   2.043   2.020   2.070   1.985   1.973   2.032
    79.00    2.148   2.110   2.159   2.199   2.107   2.152   2.103   2.039   1.917   1.971   2.020   1.931   2.039   1.937   1.875   1.991   1.974
    74.00    2.221   2.186   2.152   2.158   2.107   2.166   2.110   2.051   2.010   1.933   1.882   1.994   2.045   1.939   1.830   1.891   1.911
    69.00    2.253   2.230   2.173   2.246   2.180   2.251   2.127   2.127   2.102   1.982   1.914   2.008   1.916   1.970   1.929   1.887   1.848
    64.00    2.307   2.306   2.133   2.150   2.160   2.211   2.138   2.104   1.989   1.973   1.981   1.965   1.987   2.007   1.910   2.037   1.927
    59.00    2.272   2.220   2.099   1.963   1.994   2.102   2.053   1.952   1.969   1.955   1.974   2.044   2.045   2.088   2.010   2.015   2.029
    54.00    2.134   2.093   1.961   1.842   1.798   2.015   2.003   2.053   2.112   2.018   2.073   2.075   2.031   2.090   2.102   2.032   1.989
    49.00    2.159   2.113   1.862   1.893   1.947   1.929   1.949   1.953   2.117   2.005   2.093   2.120   2.146   2.173   2.067   2.091   2.020
    44.00    2.100   2.053   2.018   1.922   1.967   1.915   1.933   1.933   2.104   2.136   2.043   2.133   2.120   2.217   2.181   2.255   2.191

   Height   Standard deviation at grid points for the v component:
   124.00    1.680   1.680   1.680   1.680   1.680   1.680   1.680   1.680   1.680   1.680   1.680   1.680   1.680   1.680   1.680   1.680   1.680
   119.00    1.680   1.680   1.680   1.680   1.680   1.680   1.680   1.680   1.680   1.680   1.680   1.680   1.680   1.680   1.680   1.680   1.680
   114.00    1.680   1.680   1.680   1.680   1.680   1.680   1.680   1.680   1.680   1.680   1.680   1.680   1.680   1.680   1.680   1.680   1.680
   109.00    1.680   1.680   1.680   1.680   1.680   1.680   1.680   1.680   1.680   1.680   1.680   1.680   1.680   1.680   1.680   1.680   1.680
   104.00    1.680   1.680   1.680   1.680   1.680   1.680   1.680   1.680   1.680   1.680   1.680   1.680   1.680   1.680   1.680   1.680   1.680
    99.00    1.680   1.680   1.680   1.680   1.680   1.680   1.680   1.680   1.680   1.680   1.680   1.680   1.680   1.680   1.680   1.680   1.680
    94.00    1.680   1.680   1.680   1.680   1.680   1.680   1.680   1.680   1.680   1.680   1.680   1.680   1.680   1.680   1.680   1.680   1.680
    89.00    1.680   1.680   1.680   1.680   1.680   1.680   1.680   1.680   1.680   1.680   1.680   1.680   1.680   1.680   1.680   1.680   1.680
    84.00    1.680   1.680   1.680   1.680   1.680   1.680   1.680   1.680   1.680   1.680   1.680   1.680   1.680   1.680   1.680   1.680   1.680
    79.00    1.680   1.680   1.680   1.680   1.680   1.680   1.680   1.680   1.680   1.680   1.680   1.680   1.680   1.680   1.680   1.680   1.680
    74.00    1.680   1.680   1.680   1.680   1.680   1.680   1.680   1.680   1.680   1.680   1.680   1.680   1.680   1.680   1.680   1.680   1.680
    69.00    1.680   1.680   1.680   1.680   1.680   1.680   1.680   1.680   1.680   1.680   1.680   1.680   1.680   1.680   1.680   1.680   1.680
    64.00    1.680   1.680   1.680   1.680   1.680   1.680   1.680   1.680   1.680   1.680   1.680   1.680   1.680   1.680   1.680   1.680   1.680
    59.00    1.680   1.680   1.680   1.680   1.680   1.680   1.680   1.680   1.680   1.680   1.680   1.680   1.680   1.680   1.680   1.680   1.680
    54.00    1.680   1.680   1.680   1.680   1.680   1.680   1.680   1.680   1.680   1.680   1.680   1.680   1.680   1.680   1.680   1.680   1.680
    49.00    1.680   1.680   1.680   1.680   1.680   1.680   1.680   1.680   1.680   1.680   1.680   1.680   1.680   1.680   1.680   1.680   1.680
    44.00    1.680   1.680   1.680   1.680   1.680   1.680   1.680   1.680   1.680   1.680   1.680   1.680   1.680   1.680   1.680   1.680   1.680

   Height   Standard deviation at grid points for the w component:
   124.00    1.050   1.050   1.050   1.050   1.050   1.050   1.050   1.050   1.050   1.050   1.050   1.050   1.050   1.050   1.050   1.050   1.050
   119.00    1.050   1.050   1.050   1.050   1.050   1.050   1.050   1.050   1.050   1.050   1.050   1.050   1.050   1.050   1.050   1.050   1.050
   114.00    1.050   1.050   1.050   1.050   1.050   1.050   1.050   1.050   1.050   1.050   1.050   1.050   1.050   1.050   1.050   1.050   1.050
   109.00    1.050   1.050   1.050   1.050   1.050   1.050   1.050   1.050   1.050   1.050   1.050   1.050   1.050   1.050   1.050   1.050   1.050
   104.00    1.050   1.050   1.050   1.050   1.050   1.050   1.050   1.050   1.050   1.050   1.050   1.050   1.050   1.050   1.050   1.050   1.050
    99.00    1.050   1.050   1.050   1.050   1.050   1.050   1.050   1.050   1.050   1.050   1.050   1.050   1.050   1.050   1.050   1.050   1.050
    94.00    1.050   1.050   1.050   1.050   1.050   1.050   1.050   1.050   1.050   1.050   1.050   1.050   1.050   1.050   1.050   1.050   1.050
    89.00    1.050   1.050   1.050   1.050   1.050   1.050   1.050   1.050   1.050   1.050   1.050   1.050   1.050   1.050   1.050   1.050   1.050
    84.00    1.050   1.050   1.050   1.050   1.050   1.050   1.050   1.050   1.050   1.050   1.050   1.050   1.050   1.050   1.050   1.050   1.050
    79.00    1.050   1.050   1.050   1.050   1.050   1.050   1.050   1.050   1.050   1.050   1.050   1.050   1.050   1.050   1.050   1.050   1.050
    74.00    1.050   1.050   1.050   1.050   1.050   1.050   1.050   1.050   1.050   1.050   1.050   1.050   1.050   1.050   1.050   1.050   1.050
    69.00    1.050   1.050   1.050   1.050   1.050   1.050   1.050   1.050   1.050   1.050   1.050   1.050   1.050   1.050   1.050   1.050   1.050
    64.00    1.050   1.050   1.050   1.050   1.050   1.050   1.050   1.050   1.050   1.050   1.050   1.050   1.050   1.050   1.050   1.050   1.050
    59.00    1.050   1.050   1.050   1.050   1.050   1.050   1.050   1.050   1.050   1.050   1.050   1.050   1.050   1.050   1.050   1.050   1.050
    54.00    1.050   1.050   1.050   1.050   1.050   1.050   1.050   1.050   1.050   1.050   1.050   1.050   1.050   1.050   1.050   1.050   1.050
    49.00    1.050   1.050   1.050   1.050   1.050   1.050   1.050   1.050   1.050   1.050   1.050   1.050   1.050   1.050   1.050   1.050   1.050
    44.00    1.050   1.050   1.050   1.050   1.050   1.050   1.050   1.050   1.050   1.050   1.050   1.050   1.050   1.050   1.050   1.050   1.050

   Mean standard deviation across all grid points:
      u component:    2.065 m/s
      v component:    1.680 m/s
      w component:    1.050 m/s


U-component (X) statistics from the interpolated hub point:

   Mean =  16.6106 m/s
   TI   =  12.4954 %


Processing complete.  12.823 CPU seconds used.
