
This summary file was generated by TurbSim (v2.00.01a-bjj, 14-Oct-2014) on 14-Jan-2016 at 10:33:04.


Runtime Options:

 -58490046  Random seed #1
-496407563  Random seed #2
         F  Output binary HH turbulence parameters?
         F  Output formatted turbulence parameters?
         F  Output AeroDyn HH files?
         T  Output AeroDyn FF files?
         F  Output BLADED FF files?
         F  Output tower data?
         F  Output formatted FF files?
         F  Output coherent turbulence time step file?
         T  Clockwise rotation when looking downwind?
 0 -  NONE  IEC turbulence models scaled to exact specified standard deviation


Turbine/Model Specifications:

        17  Vertical grid-point matrix dimension
        17  Horizontal grid-point matrix dimension
     0.050  Time step [seconds]
   630.000  Analysis time [seconds]
   630.000  Usable output time [seconds]
    84.000  Hub height [m]
    80.000  Grid height [m]
    80.000  Grid width [m]
     0.000  Vertical flow angle [degrees]
     0.000  Horizontal flow angle [degrees]


Meteorological Boundary Conditions:

    USRINP  Uniform user-input spectral model
       N/A  IEC standard
       N/A  IEC turbulence characteristic
       N/A  IEC turbulence type
       N/A  IEC Extreme Turbulence Model (ETM) "c" parameter [m/s]
       PL   Wind profile type
   100.000  Reference height [m]
    15.200  Reference wind speed [m/s]
       N/A  Jet height [m]
     0.200  Power law exponent
     0.030  Surface roughness length [m]


Non-IEC Meteorological Boundary Conditions:

    45.000  Site latitude [degrees]
     0.050  Gradient Richardson number
     0.720  Friction or shear velocity [m/s]
       N/A  Mixing layer depth [m]
       N/A  Mean hub u'w' Reynolds stress
       N/A  Mean hub u'v' Reynolds stress
       N/A  Mean hub v'w' Reynolds stress


Spatial Coherence Models:

       IEC  u-component coherence model
      NONE  v-component coherence model
      NONE  w-component coherence model
(   12.000, 0.353E-03)  u-component coherence parameters
                   N/A  v-component coherence parameters
                   N/A  w-component coherence parameters
       N/A  Coherence exponent


You have requested that the following file(s) be generated:

   WP1.5A08V03\WP1.5A08V03_1.bts (AeroDyn/TurbSim full-field wind file)


Turbulence Simulation Scaling Parameter Summary:

   Turbulence model used                            =  Uniform user-input
   Gradient Richardson number                       =    0.050
   Monin-Obukhov (M-O) z/L parameter                =    0.067
   Monin-Obukhov (M-O) length scale                 = 1260.000 m
   Mean wind speed at hub height                    =   14.679 m/s

   Wind profile type                                =  Power law
   Power law exponent                               =    0.200
   Mean shear across rotor disk                     =    0.037 (m/s)/m
   Assumed rotor diameter                           =   80.000 m
   Surface roughness length                         =    0.030 m

   Nyquist frequency of turbulent wind field        =   10.000 Hz

   Number of time steps in the FFT                  =    12600
   Number of time steps output                      =    12600
   Number of points simulated                       =      289


Mean Flow Angles:

   Vertical   =   0.0 degrees
   Horizontal =   0.0 degrees

Mean Wind Speed Profile:

   Height    Wind Speed   Horizontal Angle  Vertical Angle  U-comp (X)   V-comp (Y)   W-comp (Z)
     (m)        (m/s)         (degrees)       (degrees)       (m/s)        (m/s)        (m/s)   
   ------    ----------   ----------------  --------------  ----------   ----------   ----------
    124.0       15.87            0.00            0.00         15.87         0.00         0.00
    119.0       15.74            0.00            0.00         15.74         0.00         0.00
    114.0       15.60            0.00            0.00         15.60         0.00         0.00
    109.0       15.46            0.00            0.00         15.46         0.00         0.00
    104.0       15.32            0.00            0.00         15.32         0.00         0.00
     99.0       15.17            0.00            0.00         15.17         0.00         0.00
     94.0       15.01            0.00            0.00         15.01         0.00         0.00
     89.0       14.85            0.00            0.00         14.85         0.00         0.00
     84.0       14.68            0.00            0.00         14.68         0.00         0.00
     79.0       14.50            0.00            0.00         14.50         0.00         0.00
     74.0       14.31            0.00            0.00         14.31         0.00         0.00
     69.0       14.11            0.00            0.00         14.11         0.00         0.00
     64.0       13.90            0.00            0.00         13.90         0.00         0.00
     59.0       13.68            0.00            0.00         13.68         0.00         0.00
     54.0       13.44            0.00            0.00         13.44         0.00         0.00
     49.0       13.18            0.00            0.00         13.18         0.00         0.00
     44.0       12.90            0.00            0.00         12.90         0.00         0.00


Harvested Random Seeds after Generation of the Random Numbers:

   1085576821 Harvested seed # 1
   1091720094 Harvested seed # 2


Hub-Height Simulated Turbulence Statistical Summary:

   Type of Wind        Min (m/s)   Mean (m/s)    Max (m/s)  Sigma (m/s)       TI (%)
   ----------------    ---------   ----------    ---------  -----------       ------
   Longitudinal (u)         9.27        14.68        21.14        2.009       13.685
   Lateral (v)             -6.42        -0.00         5.97        1.680       11.445
   Vertical (w)            -4.69         0.00         3.45        1.050        7.153
   U component              9.27        14.68        21.14        2.009       13.685
   V component             -6.42        -0.00         5.97        1.680       11.445
   W component             -4.69         0.00         3.45        1.050        7.153
   Horizontal (U&V)         9.29        14.77        21.34        2.016       13.646
   Total                    9.39        14.81        21.35        2.014       13.594

                       Min Reynolds     Mean Reynolds    Max Reynolds    Correlation
   Product             Stress (m/s)^2   Stress (m/s)^2   Stress (m/s)^2  Coefficient
   ----------------    --------------   --------------   --------------  -----------
   u'w'                    -10.854            -0.221            13.804        -0.105
   u'v'                    -25.262             0.373            28.610         0.110
   v'w'                    -14.250            -0.062            12.375        -0.035


   Friction Velocity (Ustar)  =      0.470 m/s
   Maximum Instantaneous TKE  =     29.306 (m/s)^2
   Maximum Instantaneous CTKE =     14.314 (m/s)^2


Grid Point Variance Summary:

   Y-coord  -40.00  -35.00  -30.00  -25.00  -20.00  -15.00  -10.00   -5.00    0.00    5.00   10.00   15.00   20.00   25.00   30.00   35.00   40.00

   Height   Standard deviation at grid points for the u component:
   124.00    2.307   2.283   2.194   2.320   2.239   2.376   2.440   2.481   2.474   2.440   2.232   2.157   2.306   2.475   2.442   2.353   2.318
   119.00    2.210   2.149   2.181   2.202   2.307   2.452   2.431   2.415   2.403   2.386   2.398   2.230   2.303   2.350   2.409   2.415   2.368
   114.00    2.137   2.178   2.146   2.252   2.264   2.253   2.296   2.353   2.506   2.322   2.246   2.418   2.376   2.431   2.473   2.404   2.382
   109.00    2.216   2.172   2.242   2.330   2.321   2.302   2.288   2.249   2.354   2.375   2.309   2.389   2.392   2.509   2.412   2.441   2.469
   104.00    2.165   2.196   2.257   2.465   2.432   2.412   2.216   2.244   2.263   2.229   2.341   2.327   2.442   2.506   2.359   2.284   2.352
    99.00    2.085   2.131   2.261   2.284   2.330   2.235   2.189   2.150   2.134   2.220   2.333   2.276   2.421   2.419   2.299   2.158   2.181
    94.00    2.065   2.019   2.183   2.137   2.149   2.169   2.178   2.111   2.139   2.144   2.148   2.249   2.324   2.331   2.249   2.226   2.268
    89.00    2.039   2.068   2.085   2.030   2.040   2.083   1.991   2.066   2.114   2.068   2.041   2.115   2.186   2.208   2.281   2.329   2.296
    84.00    1.998   2.096   2.011   2.084   2.020   2.008   2.048   2.077   2.009   2.024   2.021   2.075   2.139   2.316   2.243   2.261   2.337
    79.00    1.943   2.061   2.160   2.070   2.023   1.964   2.067   2.020   1.959   2.055   2.061   2.120   2.154   2.275   2.259   2.304   2.402
    74.00    2.105   2.094   2.095   1.930   1.995   2.080   2.090   2.005   1.982   2.028   2.066   2.047   2.167   2.225   2.347   2.345   2.454
    69.00    2.049   2.019   2.018   2.039   2.087   2.252   2.071   2.098   2.026   2.094   2.052   1.979   2.069   2.107   2.189   2.293   2.450
    64.00    2.017   1.947   2.065   2.021   2.075   2.178   2.160   2.063   2.000   2.112   1.995   1.983   2.043   2.072   2.261   2.299   2.459
    59.00    2.043   1.973   1.999   2.041   2.072   2.107   2.077   2.052   1.941   2.061   2.038   2.003   2.005   2.150   2.175   2.343   2.454
    54.00    2.079   1.976   2.058   2.120   2.010   1.984   2.027   2.016   1.987   1.920   2.000   1.962   1.938   2.016   2.069   2.188   2.385
    49.00    2.074   2.036   1.995   2.057   2.124   2.037   2.011   1.973   1.877   1.968   2.002   1.842   1.913   2.045   2.147   2.193   2.186
    44.00    2.100   1.996   2.016   2.101   2.045   2.006   1.938   1.939   1.980   1.868   1.885   1.930   1.833   1.870   2.022   2.017   2.024

   Height   Standard deviation at grid points for the v component:
   124.00    1.680   1.680   1.680   1.680   1.680   1.680   1.680   1.680   1.680   1.680   1.680   1.680   1.680   1.680   1.680   1.680   1.680
   119.00    1.680   1.680   1.680   1.680   1.680   1.680   1.680   1.680   1.680   1.680   1.680   1.680   1.680   1.680   1.680   1.680   1.680
   114.00    1.680   1.680   1.680   1.680   1.680   1.680   1.680   1.680   1.680   1.680   1.680   1.680   1.680   1.680   1.680   1.680   1.680
   109.00    1.680   1.680   1.680   1.680   1.680   1.680   1.680   1.680   1.680   1.680   1.680   1.680   1.680   1.680   1.680   1.680   1.680
   104.00    1.680   1.680   1.680   1.680   1.680   1.680   1.680   1.680   1.680   1.680   1.680   1.680   1.680   1.680   1.680   1.680   1.680
    99.00    1.680   1.680   1.680   1.680   1.680   1.680   1.680   1.680   1.680   1.680   1.680   1.680   1.680   1.680   1.680   1.680   1.680
    94.00    1.680   1.680   1.680   1.680   1.680   1.680   1.680   1.680   1.680   1.680   1.680   1.680   1.680   1.680   1.680   1.680   1.680
    89.00    1.680   1.680   1.680   1.680   1.680   1.680   1.680   1.680   1.680   1.680   1.680   1.680   1.680   1.680   1.680   1.680   1.680
    84.00    1.680   1.680   1.680   1.680   1.680   1.680   1.680   1.680   1.680   1.680   1.680   1.680   1.680   1.680   1.680   1.680   1.680
    79.00    1.680   1.680   1.680   1.680   1.680   1.680   1.680   1.680   1.680   1.680   1.680   1.680   1.680   1.680   1.680   1.680   1.680
    74.00    1.680   1.680   1.680   1.680   1.680   1.680   1.680   1.680   1.680   1.680   1.680   1.680   1.680   1.680   1.680   1.680   1.680
    69.00    1.680   1.680   1.680   1.680   1.680   1.680   1.680   1.680   1.680   1.680   1.680   1.680   1.680   1.680   1.680   1.680   1.680
    64.00    1.680   1.680   1.680   1.680   1.680   1.680   1.680   1.680   1.680   1.680   1.680   1.680   1.680   1.680   1.680   1.680   1.680
    59.00    1.680   1.680   1.680   1.680   1.680   1.680   1.680   1.680   1.680   1.680   1.680   1.680   1.680   1.680   1.680   1.680   1.680
    54.00    1.680   1.680   1.680   1.680   1.680   1.680   1.680   1.680   1.680   1.680   1.680   1.680   1.680   1.680   1.680   1.680   1.680
    49.00    1.680   1.680   1.680   1.680   1.680   1.680   1.680   1.680   1.680   1.680   1.680   1.680   1.680   1.680   1.680   1.680   1.680
    44.00    1.680   1.680   1.680   1.680   1.680   1.680   1.680   1.680   1.680   1.680   1.680   1.680   1.680   1.680   1.680   1.680   1.680

   Height   Standard deviation at grid points for the w component:
   124.00    1.050   1.050   1.050   1.050   1.050   1.050   1.050   1.050   1.050   1.050   1.050   1.050   1.050   1.050   1.050   1.050   1.050
   119.00    1.050   1.050   1.050   1.050   1.050   1.050   1.050   1.050   1.050   1.050   1.050   1.050   1.050   1.050   1.050   1.050   1.050
   114.00    1.050   1.050   1.050   1.050   1.050   1.050   1.050   1.050   1.050   1.050   1.050   1.050   1.050   1.050   1.050   1.050   1.050
   109.00    1.050   1.050   1.050   1.050   1.050   1.050   1.050   1.050   1.050   1.050   1.050   1.050   1.050   1.050   1.050   1.050   1.050
   104.00    1.050   1.050   1.050   1.050   1.050   1.050   1.050   1.050   1.050   1.050   1.050   1.050   1.050   1.050   1.050   1.050   1.050
    99.00    1.050   1.050   1.050   1.050   1.050   1.050   1.050   1.050   1.050   1.050   1.050   1.050   1.050   1.050   1.050   1.050   1.050
    94.00    1.050   1.050   1.050   1.050   1.050   1.050   1.050   1.050   1.050   1.050   1.050   1.050   1.050   1.050   1.050   1.050   1.050
    89.00    1.050   1.050   1.050   1.050   1.050   1.050   1.050   1.050   1.050   1.050   1.050   1.050   1.050   1.050   1.050   1.050   1.050
    84.00    1.050   1.050   1.050   1.050   1.050   1.050   1.050   1.050   1.050   1.050   1.050   1.050   1.050   1.050   1.050   1.050   1.050
    79.00    1.050   1.050   1.050   1.050   1.050   1.050   1.050   1.050   1.050   1.050   1.050   1.050   1.050   1.050   1.050   1.050   1.050
    74.00    1.050   1.050   1.050   1.050   1.050   1.050   1.050   1.050   1.050   1.050   1.050   1.050   1.050   1.050   1.050   1.050   1.050
    69.00    1.050   1.050   1.050   1.050   1.050   1.050   1.050   1.050   1.050   1.050   1.050   1.050   1.050   1.050   1.050   1.050   1.050
    64.00    1.050   1.050   1.050   1.050   1.050   1.050   1.050   1.050   1.050   1.050   1.050   1.050   1.050   1.050   1.050   1.050   1.050
    59.00    1.050   1.050   1.050   1.050   1.050   1.050   1.050   1.050   1.050   1.050   1.050   1.050   1.050   1.050   1.050   1.050   1.050
    54.00    1.050   1.050   1.050   1.050   1.050   1.050   1.050   1.050   1.050   1.050   1.050   1.050   1.050   1.050   1.050   1.050   1.050
    49.00    1.050   1.050   1.050   1.050   1.050   1.050   1.050   1.050   1.050   1.050   1.050   1.050   1.050   1.050   1.050   1.050   1.050
    44.00    1.050   1.050   1.050   1.050   1.050   1.050   1.050   1.050   1.050   1.050   1.050   1.050   1.050   1.050   1.050   1.050   1.050

   Mean standard deviation across all grid points:
      u component:    2.170 m/s
      v component:    1.680 m/s
      w component:    1.050 m/s


U-component (X) statistics from the interpolated hub point:

   Mean =  14.6791 m/s
   TI   =  13.6847 %


Processing complete.  12.823 CPU seconds used.
