
This summary file was generated by TurbSim (v2.00.01a-bjj, 14-Oct-2014) on 14-Jan-2016 at 10:31:17.


Runtime Options:

 745114648  Random seed #1
-154794614  Random seed #2
         F  Output binary HH turbulence parameters?
         F  Output formatted turbulence parameters?
         F  Output AeroDyn HH files?
         T  Output AeroDyn FF files?
         F  Output BLADED FF files?
         F  Output tower data?
         F  Output formatted FF files?
         F  Output coherent turbulence time step file?
         T  Clockwise rotation when looking downwind?
 0 -  NONE  IEC turbulence models scaled to exact specified standard deviation


Turbine/Model Specifications:

        17  Vertical grid-point matrix dimension
        17  Horizontal grid-point matrix dimension
     0.050  Time step [seconds]
   630.000  Analysis time [seconds]
   630.000  Usable output time [seconds]
    84.000  Hub height [m]
    80.000  Grid height [m]
    80.000  Grid width [m]
     0.000  Vertical flow angle [degrees]
     0.000  Horizontal flow angle [degrees]


Meteorological Boundary Conditions:

    USRINP  Uniform user-input spectral model
       N/A  IEC standard
       N/A  IEC turbulence characteristic
       N/A  IEC turbulence type
       N/A  IEC Extreme Turbulence Model (ETM) "c" parameter [m/s]
       PL   Wind profile type
   100.000  Reference height [m]
    15.200  Reference wind speed [m/s]
       N/A  Jet height [m]
     0.200  Power law exponent
     0.030  Surface roughness length [m]


Non-IEC Meteorological Boundary Conditions:

    45.000  Site latitude [degrees]
     0.050  Gradient Richardson number
     0.720  Friction or shear velocity [m/s]
       N/A  Mixing layer depth [m]
       N/A  Mean hub u'w' Reynolds stress
       N/A  Mean hub u'v' Reynolds stress
       N/A  Mean hub v'w' Reynolds stress


Spatial Coherence Models:

       IEC  u-component coherence model
      NONE  v-component coherence model
      NONE  w-component coherence model
(   12.000, 0.353E-03)  u-component coherence parameters
                   N/A  v-component coherence parameters
                   N/A  w-component coherence parameters
       N/A  Coherence exponent


You have requested that the following file(s) be generated:

   WP1.5A08V03\WP1.5A08V03_0.bts (AeroDyn/TurbSim full-field wind file)


Turbulence Simulation Scaling Parameter Summary:

   Turbulence model used                            =  Uniform user-input
   Gradient Richardson number                       =    0.050
   Monin-Obukhov (M-O) z/L parameter                =    0.067
   Monin-Obukhov (M-O) length scale                 = 1260.000 m
   Mean wind speed at hub height                    =   14.679 m/s

   Wind profile type                                =  Power law
   Power law exponent                               =    0.200
   Mean shear across rotor disk                     =    0.037 (m/s)/m
   Assumed rotor diameter                           =   80.000 m
   Surface roughness length                         =    0.030 m

   Nyquist frequency of turbulent wind field        =   10.000 Hz

   Number of time steps in the FFT                  =    12600
   Number of time steps output                      =    12600
   Number of points simulated                       =      289


Mean Flow Angles:

   Vertical   =   0.0 degrees
   Horizontal =   0.0 degrees

Mean Wind Speed Profile:

   Height    Wind Speed   Horizontal Angle  Vertical Angle  U-comp (X)   V-comp (Y)   W-comp (Z)
     (m)        (m/s)         (degrees)       (degrees)       (m/s)        (m/s)        (m/s)   
   ------    ----------   ----------------  --------------  ----------   ----------   ----------
    124.0       15.87            0.00            0.00         15.87         0.00         0.00
    119.0       15.74            0.00            0.00         15.74         0.00         0.00
    114.0       15.60            0.00            0.00         15.60         0.00         0.00
    109.0       15.46            0.00            0.00         15.46         0.00         0.00
    104.0       15.32            0.00            0.00         15.32         0.00         0.00
     99.0       15.17            0.00            0.00         15.17         0.00         0.00
     94.0       15.01            0.00            0.00         15.01         0.00         0.00
     89.0       14.85            0.00            0.00         14.85         0.00         0.00
     84.0       14.68            0.00            0.00         14.68         0.00         0.00
     79.0       14.50            0.00            0.00         14.50         0.00         0.00
     74.0       14.31            0.00            0.00         14.31         0.00         0.00
     69.0       14.11            0.00            0.00         14.11         0.00         0.00
     64.0       13.90            0.00            0.00         13.90         0.00         0.00
     59.0       13.68            0.00            0.00         13.68         0.00         0.00
     54.0       13.44            0.00            0.00         13.44         0.00         0.00
     49.0       13.18            0.00            0.00         13.18         0.00         0.00
     44.0       12.90            0.00            0.00         12.90         0.00         0.00


Harvested Random Seeds after Generation of the Random Numbers:

       790330 Harvested seed # 1
    307301209 Harvested seed # 2


Hub-Height Simulated Turbulence Statistical Summary:

   Type of Wind        Min (m/s)   Mean (m/s)    Max (m/s)  Sigma (m/s)       TI (%)
   ----------------    ---------   ----------    ---------  -----------       ------
   Longitudinal (u)         7.94        14.68        20.99        2.173       14.800
   Lateral (v)             -6.14        -0.00         5.61        1.680       11.445
   Vertical (w)            -3.54        -0.00         3.38        1.050        7.153
   U component              7.94        14.68        20.99        2.173       14.800
   V component             -6.14        -0.00         5.61        1.680       11.445
   W component             -3.54        -0.00         3.38        1.050        7.153
   Horizontal (U&V)         8.18        14.78        21.02        2.147       14.526
   Total                    8.18        14.82        21.10        2.141       14.452

                       Min Reynolds     Mean Reynolds    Max Reynolds    Correlation
   Product             Stress (m/s)^2   Stress (m/s)^2   Stress (m/s)^2  Coefficient
   ----------------    --------------   --------------   --------------  -----------
   u'w'                    -11.327             0.057            18.735         0.025
   u'v'                    -21.663            -0.150            25.677        -0.041
   v'w'                    -11.937            -0.110            11.005        -0.062


   Friction Velocity (Ustar)  =      0.238 m/s
   Maximum Instantaneous TKE  =     28.475 (m/s)^2
   Maximum Instantaneous CTKE =     15.067 (m/s)^2


Grid Point Variance Summary:

   Y-coord  -40.00  -35.00  -30.00  -25.00  -20.00  -15.00  -10.00   -5.00    0.00    5.00   10.00   15.00   20.00   25.00   30.00   35.00   40.00

   Height   Standard deviation at grid points for the u component:
   124.00    2.156   2.132   2.070   2.094   2.129   2.024   2.025   2.067   2.218   2.165   2.211   2.310   2.285   2.355   2.279   2.346   2.398
   119.00    2.126   2.100   2.088   2.062   2.084   2.074   2.058   1.985   2.075   2.115   2.119   2.152   2.142   2.229   2.252   2.278   2.362
   114.00    2.010   2.026   2.090   2.148   1.965   1.954   1.973   2.030   2.038   2.082   2.143   2.134   2.111   2.137   2.215   2.257   2.396
   109.00    1.965   2.021   2.098   2.091   2.075   1.989   2.016   1.994   2.045   2.062   2.078   1.989   2.060   2.034   2.239   2.306   2.357
   104.00    1.985   1.921   1.992   2.075   1.961   2.010   1.994   2.015   2.046   1.958   1.975   2.036   1.957   2.081   2.266   2.266   2.330
    99.00    1.934   1.829   2.007   2.004   2.009   2.142   2.141   2.021   1.982   1.935   1.869   2.027   2.036   2.090   2.185   2.238   2.267
    94.00    2.009   2.010   2.018   1.966   1.985   2.173   2.027   1.979   1.997   1.889   1.941   1.991   1.974   2.108   2.126   2.088   2.209
    89.00    1.965   2.024   2.011   1.992   1.994   1.971   1.962   2.000   2.011   1.981   2.009   2.079   2.055   2.180   2.223   2.201   2.138
    84.00    2.096   2.137   2.116   2.099   2.046   2.046   2.025   2.088   2.173   2.013   2.011   2.086   2.104   2.143   2.070   2.063   2.102
    79.00    2.084   2.147   2.209   2.202   2.109   2.093   2.173   2.129   2.133   2.052   2.135   2.152   2.186   2.028   2.020   2.063   2.052
    74.00    2.055   2.164   2.259   2.286   2.170   2.154   2.166   2.129   2.209   2.154   2.135   2.167   2.264   2.106   1.981   2.014   2.054
    69.00    2.021   2.171   2.171   2.326   2.275   2.195   2.164   2.237   2.166   2.118   2.166   2.169   2.213   2.175   2.109   2.021   2.025
    64.00    2.114   2.169   2.189   2.224   2.269   2.299   2.212   2.167   2.094   2.046   2.180   2.159   2.224   2.161   2.158   2.050   2.097
    59.00    2.065   2.100   2.237   2.190   2.159   2.181   2.110   2.006   2.085   2.137   2.161   2.238   2.262   2.206   2.218   2.108   2.145
    54.00    2.211   2.121   2.080   2.157   2.060   2.139   2.125   2.120   2.194   2.222   2.212   2.223   2.168   2.273   2.210   2.205   2.160
    49.00    2.183   2.181   2.125   2.113   2.209   2.183   2.147   2.192   2.261   2.215   2.170   2.271   2.219   2.284   2.180   2.244   2.136
    44.00    2.100   2.112   2.160   2.249   2.217   2.232   2.212   2.204   2.260   2.265   2.107   2.181   2.164   2.196   2.198   2.243   2.217

   Height   Standard deviation at grid points for the v component:
   124.00    1.680   1.680   1.680   1.680   1.680   1.680   1.680   1.680   1.680   1.680   1.680   1.680   1.680   1.680   1.680   1.680   1.680
   119.00    1.680   1.680   1.680   1.680   1.680   1.680   1.680   1.680   1.680   1.680   1.680   1.680   1.680   1.680   1.680   1.680   1.680
   114.00    1.680   1.680   1.680   1.680   1.680   1.680   1.680   1.680   1.680   1.680   1.680   1.680   1.680   1.680   1.680   1.680   1.680
   109.00    1.680   1.680   1.680   1.680   1.680   1.680   1.680   1.680   1.680   1.680   1.680   1.680   1.680   1.680   1.680   1.680   1.680
   104.00    1.680   1.680   1.680   1.680   1.680   1.680   1.680   1.680   1.680   1.680   1.680   1.680   1.680   1.680   1.680   1.680   1.680
    99.00    1.680   1.680   1.680   1.680   1.680   1.680   1.680   1.680   1.680   1.680   1.680   1.680   1.680   1.680   1.680   1.680   1.680
    94.00    1.680   1.680   1.680   1.680   1.680   1.680   1.680   1.680   1.680   1.680   1.680   1.680   1.680   1.680   1.680   1.680   1.680
    89.00    1.680   1.680   1.680   1.680   1.680   1.680   1.680   1.680   1.680   1.680   1.680   1.680   1.680   1.680   1.680   1.680   1.680
    84.00    1.680   1.680   1.680   1.680   1.680   1.680   1.680   1.680   1.680   1.680   1.680   1.680   1.680   1.680   1.680   1.680   1.680
    79.00    1.680   1.680   1.680   1.680   1.680   1.680   1.680   1.680   1.680   1.680   1.680   1.680   1.680   1.680   1.680   1.680   1.680
    74.00    1.680   1.680   1.680   1.680   1.680   1.680   1.680   1.680   1.680   1.680   1.680   1.680   1.680   1.680   1.680   1.680   1.680
    69.00    1.680   1.680   1.680   1.680   1.680   1.680   1.680   1.680   1.680   1.680   1.680   1.680   1.680   1.680   1.680   1.680   1.680
    64.00    1.680   1.680   1.680   1.680   1.680   1.680   1.680   1.680   1.680   1.680   1.680   1.680   1.680   1.680   1.680   1.680   1.680
    59.00    1.680   1.680   1.680   1.680   1.680   1.680   1.680   1.680   1.680   1.680   1.680   1.680   1.680   1.680   1.680   1.680   1.680
    54.00    1.680   1.680   1.680   1.680   1.680   1.680   1.680   1.680   1.680   1.680   1.680   1.680   1.680   1.680   1.680   1.680   1.680
    49.00    1.680   1.680   1.680   1.680   1.680   1.680   1.680   1.680   1.680   1.680   1.680   1.680   1.680   1.680   1.680   1.680   1.680
    44.00    1.680   1.680   1.680   1.680   1.680   1.680   1.680   1.680   1.680   1.680   1.680   1.680   1.680   1.680   1.680   1.680   1.680

   Height   Standard deviation at grid points for the w component:
   124.00    1.050   1.050   1.050   1.050   1.050   1.050   1.050   1.050   1.050   1.050   1.050   1.050   1.050   1.050   1.050   1.050   1.050
   119.00    1.050   1.050   1.050   1.050   1.050   1.050   1.050   1.050   1.050   1.050   1.050   1.050   1.050   1.050   1.050   1.050   1.050
   114.00    1.050   1.050   1.050   1.050   1.050   1.050   1.050   1.050   1.050   1.050   1.050   1.050   1.050   1.050   1.050   1.050   1.050
   109.00    1.050   1.050   1.050   1.050   1.050   1.050   1.050   1.050   1.050   1.050   1.050   1.050   1.050   1.050   1.050   1.050   1.050
   104.00    1.050   1.050   1.050   1.050   1.050   1.050   1.050   1.050   1.050   1.050   1.050   1.050   1.050   1.050   1.050   1.050   1.050
    99.00    1.050   1.050   1.050   1.050   1.050   1.050   1.050   1.050   1.050   1.050   1.050   1.050   1.050   1.050   1.050   1.050   1.050
    94.00    1.050   1.050   1.050   1.050   1.050   1.050   1.050   1.050   1.050   1.050   1.050   1.050   1.050   1.050   1.050   1.050   1.050
    89.00    1.050   1.050   1.050   1.050   1.050   1.050   1.050   1.050   1.050   1.050   1.050   1.050   1.050   1.050   1.050   1.050   1.050
    84.00    1.050   1.050   1.050   1.050   1.050   1.050   1.050   1.050   1.050   1.050   1.050   1.050   1.050   1.050   1.050   1.050   1.050
    79.00    1.050   1.050   1.050   1.050   1.050   1.050   1.050   1.050   1.050   1.050   1.050   1.050   1.050   1.050   1.050   1.050   1.050
    74.00    1.050   1.050   1.050   1.050   1.050   1.050   1.050   1.050   1.050   1.050   1.050   1.050   1.050   1.050   1.050   1.050   1.050
    69.00    1.050   1.050   1.050   1.050   1.050   1.050   1.050   1.050   1.050   1.050   1.050   1.050   1.050   1.050   1.050   1.050   1.050
    64.00    1.050   1.050   1.050   1.050   1.050   1.050   1.050   1.050   1.050   1.050   1.050   1.050   1.050   1.050   1.050   1.050   1.050
    59.00    1.050   1.050   1.050   1.050   1.050   1.050   1.050   1.050   1.050   1.050   1.050   1.050   1.050   1.050   1.050   1.050   1.050
    54.00    1.050   1.050   1.050   1.050   1.050   1.050   1.050   1.050   1.050   1.050   1.050   1.050   1.050   1.050   1.050   1.050   1.050
    49.00    1.050   1.050   1.050   1.050   1.050   1.050   1.050   1.050   1.050   1.050   1.050   1.050   1.050   1.050   1.050   1.050   1.050
    44.00    1.050   1.050   1.050   1.050   1.050   1.050   1.050   1.050   1.050   1.050   1.050   1.050   1.050   1.050   1.050   1.050   1.050

   Mean standard deviation across all grid points:
      u component:    2.121 m/s
      v component:    1.680 m/s
      w component:    1.050 m/s


U-component (X) statistics from the interpolated hub point:

   Mean =  14.6791 m/s
   TI   =  14.8002 %


Processing complete.  14.305 CPU seconds used.
