
This summary file was generated by TurbSim (v2.00.01a-bjj, 14-Oct-2014) on 25-Oct-2015 at 13:36:07.


Runtime Options:

1514457698  Random seed #1
1767302975  Random seed #2
         F  Output binary HH turbulence parameters?
         F  Output formatted turbulence parameters?
         F  Output AeroDyn HH files?
         T  Output AeroDyn FF files?
         F  Output BLADED FF files?
         F  Output tower data?
         F  Output formatted FF files?
         F  Output coherent turbulence time step file?
         T  Clockwise rotation when looking downwind?
 0 -  NONE  IEC turbulence models scaled to exact specified standard deviation


Turbine/Model Specifications:

        17  Vertical grid-point matrix dimension
        17  Horizontal grid-point matrix dimension
     0.050  Time step [seconds]
   630.000  Analysis time [seconds]
   630.000  Usable output time [seconds]
   119.000  Hub height [m]
   120.000  Grid height [m]
   120.000  Grid width [m]
     0.000  Vertical flow angle [degrees]
     0.000  Horizontal flow angle [degrees]


Meteorological Boundary Conditions:

    USRINP  Uniform user-input spectral model
       N/A  IEC standard
       N/A  IEC turbulence characteristic
       N/A  IEC turbulence type
       N/A  IEC Extreme Turbulence Model (ETM) "c" parameter [m/s]
       PL   Wind profile type
   100.000  Reference height [m]
    12.000  Reference wind speed [m/s]
       N/A  Jet height [m]
     0.200  Power law exponent
     0.030  Surface roughness length [m]


Non-IEC Meteorological Boundary Conditions:

    45.000  Site latitude [degrees]
     0.050  Gradient Richardson number
     0.568  Friction or shear velocity [m/s]
       N/A  Mixing layer depth [m]
       N/A  Mean hub u'w' Reynolds stress
       N/A  Mean hub u'v' Reynolds stress
       N/A  Mean hub v'w' Reynolds stress


Spatial Coherence Models:

       IEC  u-component coherence model
      NONE  v-component coherence model
      NONE  w-component coherence model
(   12.000, 0.353E-03)  u-component coherence parameters
                   N/A  v-component coherence parameters
                   N/A  w-component coherence parameters
       N/A  Coherence exponent


You have requested that the following file(s) be generated:

   /scratch/jrinker/IOFiles/WP3.0A02V02/WP3.0A02V02_74303.bts (AeroDyn/TurbSim full-field wind file)


Turbulence Simulation Scaling Parameter Summary:

   Turbulence model used                            =  Uniform user-input
   Gradient Richardson number                       =    0.050
   Monin-Obukhov (M-O) z/L parameter                =    0.067
   Monin-Obukhov (M-O) length scale                 = 1785.000 m
   Mean wind speed at hub height                    =   12.425 m/s

   Wind profile type                                =  Power law
   Power law exponent                               =    0.200
   Mean shear across rotor disk                     =    0.022 (m/s)/m
   Assumed rotor diameter                           =  120.000 m
   Surface roughness length                         =    0.030 m

   Nyquist frequency of turbulent wind field        =   10.000 Hz

   Number of time steps in the FFT                  =    12600
   Number of time steps output                      =    12600
   Number of points simulated                       =      289


Mean Flow Angles:

   Vertical   =   0.0 degrees
   Horizontal =   0.0 degrees

Mean Wind Speed Profile:

   Height    Wind Speed   Horizontal Angle  Vertical Angle  U-comp (X)   V-comp (Y)   W-comp (Z)
     (m)        (m/s)         (degrees)       (degrees)       (m/s)        (m/s)        (m/s)   
   ------    ----------   ----------------  --------------  ----------   ----------   ----------
    179.0       13.48            0.00            0.00         13.48         0.00         0.00
    171.5       13.37            0.00            0.00         13.37         0.00         0.00
    164.0       13.25            0.00            0.00         13.25         0.00         0.00
    156.5       13.12            0.00            0.00         13.12         0.00         0.00
    149.0       13.00            0.00            0.00         13.00         0.00         0.00
    141.5       12.86            0.00            0.00         12.86         0.00         0.00
    134.0       12.72            0.00            0.00         12.72         0.00         0.00
    126.5       12.58            0.00            0.00         12.58         0.00         0.00
    119.0       12.42            0.00            0.00         12.42         0.00         0.00
    111.5       12.26            0.00            0.00         12.26         0.00         0.00
    104.0       12.09            0.00            0.00         12.09         0.00         0.00
     96.5       11.91            0.00            0.00         11.91         0.00         0.00
     89.0       11.72            0.00            0.00         11.72         0.00         0.00
     81.5       11.52            0.00            0.00         11.52         0.00         0.00
     74.0       11.30            0.00            0.00         11.30         0.00         0.00
     66.5       11.06            0.00            0.00         11.06         0.00         0.00
     59.0       10.80            0.00            0.00         10.80         0.00         0.00


Harvested Random Seeds after Generation of the Random Numbers:

   1518520911 Harvested seed # 1
   1762912239 Harvested seed # 2
   1513605736 Harvested seed # 3
   1764222779 Harvested seed # 4
   1515833991 Harvested seed # 5
   1778247457 Harvested seed # 6
   1512360485 Harvested seed # 7
   1768220534 Harvested seed # 8
   1803716431 Harvested seed # 9
   -938272785 Harvested seed #10
    305625448 Harvested seed #11
   1663553083 Harvested seed #12


Hub-Height Simulated Turbulence Statistical Summary:

   Type of Wind        Min (m/s)   Mean (m/s)    Max (m/s)  Sigma (m/s)       TI (%)
   ----------------    ---------   ----------    ---------  -----------       ------
   Longitudinal (u)        -5.97        12.42        30.41        6.006       48.337
   Lateral (v)            -13.30        -0.00        16.82        4.800       38.633
   Vertical (w)           -11.40         0.00        10.49        3.000       24.146
   U component             -5.97        12.42        30.41        6.006       48.337
   V component            -13.30        -0.00        16.82        4.800       38.633
   W component            -11.40         0.00        10.49        3.000       24.146
   Horizontal (U&V)         0.18        13.47        31.00        5.650       41.935
   Total                    1.06        13.86        31.03        5.523       39.864

                       Min Reynolds     Mean Reynolds    Max Reynolds    Correlation
   Product             Stress (m/s)^2   Stress (m/s)^2   Stress (m/s)^2  Coefficient
   ----------------    --------------   --------------   --------------  -----------
   u'w'                   -134.801            -3.624            67.464        -0.201
   u'v'                   -137.856             2.375           132.007         0.082
   v'w'                    -66.487             0.299            80.028         0.021


   Friction Velocity (Ustar)  =      1.904 m/s
   Maximum Instantaneous TKE  =    180.753 (m/s)^2
   Maximum Instantaneous CTKE =     74.232 (m/s)^2


Grid Point Variance Summary:

   Y-coord  -60.00  -52.50  -45.00  -37.50  -30.00  -22.50  -15.00   -7.50    0.00    7.50   15.00   22.50   30.00   37.50   45.00   52.50   60.00

   Height   Standard deviation at grid points for the u component:
   179.00    6.574   6.576   6.359   6.152   5.706   6.159   5.837   5.855   5.673   5.588   5.534   5.242   5.091   5.746   5.980   5.924   6.016
   171.50    6.583   6.480   6.212   5.835   6.323   5.736   5.423   5.321   5.598   5.440   5.354   5.146   5.319   5.548   5.865   6.241   5.916
   164.00    6.214   5.978   6.218   5.875   5.866   6.058   5.703   5.715   5.331   5.620   5.655   5.332   5.479   6.207   6.404   5.815   5.465
   156.50    6.382   6.056   6.343   6.262   6.420   6.332   5.701   5.394   5.296   5.335   5.417   5.480   6.115   6.408   5.972   5.996   5.224
   149.00    6.462   6.206   6.199   6.086   5.648   6.111   5.627   5.271   5.312   5.512   5.574   5.668   6.232   6.511   5.952   5.921   5.199
   141.50    6.532   6.204   5.622   5.805   6.318   5.801   5.616   5.550   5.242   5.272   5.667   6.209   6.486   6.596   6.195   6.007   5.018
   134.00    6.083   5.696   5.532   5.565   5.935   6.011   5.584   6.284   5.779   5.909   5.668   5.512   6.171   6.004   5.928   5.841   5.149
   126.50    6.031   5.778   6.119   6.476   6.585   5.835   5.926   6.438   6.184   5.845   5.753   6.103   6.158   5.946   5.766   5.656   5.061
   119.00    6.040   5.996   6.591   6.501   6.435   6.080   5.994   6.023   6.006   6.217   5.884   6.152   6.430   6.275   5.955   5.554   5.066
   111.50    5.811   6.103   6.137   6.325   5.885   5.921   5.820   6.136   6.459   6.397   6.260   6.243   6.479   5.924   5.783   5.348   5.072
   104.00    5.575   5.857   5.816   5.900   6.114   6.345   6.457   6.956   6.372   6.788   6.441   6.344   6.342   6.166   5.361   5.134   4.992
    96.50    6.221   6.169   6.300   6.280   6.125   5.976   6.218   6.681   6.525   6.549   6.365   6.392   6.220   5.592   5.565   5.354   4.676
    89.00    6.779   6.419   6.081   6.516   6.500   6.465   6.826   6.762   6.455   6.207   6.347   6.236   5.991   5.775   5.381   5.304   5.654
    81.50    6.468   6.559   6.694   6.836   6.847   6.980   6.447   6.679   6.231   6.688   6.405   6.209   5.984   5.898   5.759   5.542   5.744
    74.00    5.976   6.352   6.313   6.633   7.555   6.929   6.910   6.744   6.293   6.551   6.168   6.103   5.798   5.702   5.499   4.854   5.089
    66.50    6.048   6.723   6.763   7.275   7.815   7.576   6.989   7.026   6.989   7.017   6.384   6.020   5.299   5.361   5.175   4.877   4.780
    59.00    6.006   6.313   7.063   7.340   7.901   7.423   7.490   7.180   7.236   6.433   5.998   5.908   5.187   5.043   4.668   4.562   4.749

   Height   Standard deviation at grid points for the v component:
   179.00    4.800   4.800   4.800   4.800   4.800   4.800   4.800   4.800   4.800   4.800   4.800   4.800   4.800   4.800   4.800   4.800   4.800
   171.50    4.800   4.800   4.800   4.800   4.800   4.800   4.800   4.800   4.800   4.800   4.800   4.800   4.800   4.800   4.800   4.800   4.800
   164.00    4.800   4.800   4.800   4.800   4.800   4.800   4.800   4.800   4.800   4.800   4.800   4.800   4.800   4.800   4.800   4.800   4.800
   156.50    4.800   4.800   4.800   4.800   4.800   4.800   4.800   4.800   4.800   4.800   4.800   4.800   4.800   4.800   4.800   4.800   4.800
   149.00    4.800   4.800   4.800   4.800   4.800   4.800   4.800   4.800   4.800   4.800   4.800   4.800   4.800   4.800   4.800   4.800   4.800
   141.50    4.800   4.800   4.800   4.800   4.800   4.800   4.800   4.800   4.800   4.800   4.800   4.800   4.800   4.800   4.800   4.800   4.800
   134.00    4.800   4.800   4.800   4.800   4.800   4.800   4.800   4.800   4.800   4.800   4.800   4.800   4.800   4.800   4.800   4.800   4.800
   126.50    4.800   4.800   4.800   4.800   4.800   4.800   4.800   4.800   4.800   4.800   4.800   4.800   4.800   4.800   4.800   4.800   4.800
   119.00    4.800   4.800   4.800   4.800   4.800   4.800   4.800   4.800   4.800   4.800   4.800   4.800   4.800   4.800   4.800   4.800   4.800
   111.50    4.800   4.800   4.800   4.800   4.800   4.800   4.800   4.800   4.800   4.800   4.800   4.800   4.800   4.800   4.800   4.800   4.800
   104.00    4.800   4.800   4.800   4.800   4.800   4.800   4.800   4.800   4.800   4.800   4.800   4.800   4.800   4.800   4.800   4.800   4.800
    96.50    4.800   4.800   4.800   4.800   4.800   4.800   4.800   4.800   4.800   4.800   4.800   4.800   4.800   4.800   4.800   4.800   4.800
    89.00    4.800   4.800   4.800   4.800   4.800   4.800   4.800   4.800   4.800   4.800   4.800   4.800   4.800   4.800   4.800   4.800   4.800
    81.50    4.800   4.800   4.800   4.800   4.800   4.800   4.800   4.800   4.800   4.800   4.800   4.800   4.800   4.800   4.800   4.800   4.800
    74.00    4.800   4.800   4.800   4.800   4.800   4.800   4.800   4.800   4.800   4.800   4.800   4.800   4.800   4.800   4.800   4.800   4.800
    66.50    4.800   4.800   4.800   4.800   4.800   4.800   4.800   4.800   4.800   4.800   4.800   4.800   4.800   4.800   4.800   4.800   4.800
    59.00    4.800   4.800   4.800   4.800   4.800   4.800   4.800   4.800   4.800   4.800   4.800   4.800   4.800   4.800   4.800   4.800   4.800

   Height   Standard deviation at grid points for the w component:
   179.00    3.000   3.000   3.000   3.000   3.000   3.000   3.000   3.000   3.000   3.000   3.000   3.000   3.000   3.000   3.000   3.000   3.000
   171.50    3.000   3.000   3.000   3.000   3.000   3.000   3.000   3.000   3.000   3.000   3.000   3.000   3.000   3.000   3.000   3.000   3.000
   164.00    3.000   3.000   3.000   3.000   3.000   3.000   3.000   3.000   3.000   3.000   3.000   3.000   3.000   3.000   3.000   3.000   3.000
   156.50    3.000   3.000   3.000   3.000   3.000   3.000   3.000   3.000   3.000   3.000   3.000   3.000   3.000   3.000   3.000   3.000   3.000
   149.00    3.000   3.000   3.000   3.000   3.000   3.000   3.000   3.000   3.000   3.000   3.000   3.000   3.000   3.000   3.000   3.000   3.000
   141.50    3.000   3.000   3.000   3.000   3.000   3.000   3.000   3.000   3.000   3.000   3.000   3.000   3.000   3.000   3.000   3.000   3.000
   134.00    3.000   3.000   3.000   3.000   3.000   3.000   3.000   3.000   3.000   3.000   3.000   3.000   3.000   3.000   3.000   3.000   3.000
   126.50    3.000   3.000   3.000   3.000   3.000   3.000   3.000   3.000   3.000   3.000   3.000   3.000   3.000   3.000   3.000   3.000   3.000
   119.00    3.000   3.000   3.000   3.000   3.000   3.000   3.000   3.000   3.000   3.000   3.000   3.000   3.000   3.000   3.000   3.000   3.000
   111.50    3.000   3.000   3.000   3.000   3.000   3.000   3.000   3.000   3.000   3.000   3.000   3.000   3.000   3.000   3.000   3.000   3.000
   104.00    3.000   3.000   3.000   3.000   3.000   3.000   3.000   3.000   3.000   3.000   3.000   3.000   3.000   3.000   3.000   3.000   3.000
    96.50    3.000   3.000   3.000   3.000   3.000   3.000   3.000   3.000   3.000   3.000   3.000   3.000   3.000   3.000   3.000   3.000   3.000
    89.00    3.000   3.000   3.000   3.000   3.000   3.000   3.000   3.000   3.000   3.000   3.000   3.000   3.000   3.000   3.000   3.000   3.000
    81.50    3.000   3.000   3.000   3.000   3.000   3.000   3.000   3.000   3.000   3.000   3.000   3.000   3.000   3.000   3.000   3.000   3.000
    74.00    3.000   3.000   3.000   3.000   3.000   3.000   3.000   3.000   3.000   3.000   3.000   3.000   3.000   3.000   3.000   3.000   3.000
    66.50    3.000   3.000   3.000   3.000   3.000   3.000   3.000   3.000   3.000   3.000   3.000   3.000   3.000   3.000   3.000   3.000   3.000
    59.00    3.000   3.000   3.000   3.000   3.000   3.000   3.000   3.000   3.000   3.000   3.000   3.000   3.000   3.000   3.000   3.000   3.000

   Mean standard deviation across all grid points:
      u component:    6.030 m/s
      v component:    4.800 m/s
      w component:    3.000 m/s


U-component (X) statistics from the interpolated hub point:

   Mean =  12.4248 m/s
   TI   =  48.3370 %


Processing complete.  68.353 CPU seconds used.
