
This summary file was generated by TurbSim (v2.00.01a-bjj, 14-Oct-2014) on 25-Oct-2015 at 13:33:48.


Runtime Options:

 150129405  Random seed #1
1190655840  Random seed #2
         F  Output binary HH turbulence parameters?
         F  Output formatted turbulence parameters?
         F  Output AeroDyn HH files?
         T  Output AeroDyn FF files?
         F  Output BLADED FF files?
         F  Output tower data?
         F  Output formatted FF files?
         F  Output coherent turbulence time step file?
         T  Clockwise rotation when looking downwind?
 0 -  NONE  IEC turbulence models scaled to exact specified standard deviation


Turbine/Model Specifications:

        17  Vertical grid-point matrix dimension
        17  Horizontal grid-point matrix dimension
     0.050  Time step [seconds]
   630.000  Analysis time [seconds]
   630.000  Usable output time [seconds]
   119.000  Hub height [m]
   120.000  Grid height [m]
   120.000  Grid width [m]
     0.000  Vertical flow angle [degrees]
     0.000  Horizontal flow angle [degrees]


Meteorological Boundary Conditions:

    USRINP  Uniform user-input spectral model
       N/A  IEC standard
       N/A  IEC turbulence characteristic
       N/A  IEC turbulence type
       N/A  IEC Extreme Turbulence Model (ETM) "c" parameter [m/s]
       PL   Wind profile type
   100.000  Reference height [m]
     9.000  Reference wind speed [m/s]
       N/A  Jet height [m]
     0.200  Power law exponent
     0.030  Surface roughness length [m]


Non-IEC Meteorological Boundary Conditions:

    45.000  Site latitude [degrees]
     0.050  Gradient Richardson number
     0.426  Friction or shear velocity [m/s]
       N/A  Mixing layer depth [m]
       N/A  Mean hub u'w' Reynolds stress
       N/A  Mean hub u'v' Reynolds stress
       N/A  Mean hub v'w' Reynolds stress


Spatial Coherence Models:

       IEC  u-component coherence model
      NONE  v-component coherence model
      NONE  w-component coherence model
(   12.000, 0.353E-03)  u-component coherence parameters
                   N/A  v-component coherence parameters
                   N/A  w-component coherence parameters
       N/A  Coherence exponent


You have requested that the following file(s) be generated:

   /scratch/jrinker/IOFiles/WP3.0A02V02/WP3.0A02V02_22041.bts (AeroDyn/TurbSim full-field wind file)


Turbulence Simulation Scaling Parameter Summary:

   Turbulence model used                            =  Uniform user-input
   Gradient Richardson number                       =    0.050
   Monin-Obukhov (M-O) z/L parameter                =    0.067
   Monin-Obukhov (M-O) length scale                 = 1785.000 m
   Mean wind speed at hub height                    =    9.319 m/s

   Wind profile type                                =  Power law
   Power law exponent                               =    0.200
   Mean shear across rotor disk                     =    0.017 (m/s)/m
   Assumed rotor diameter                           =  120.000 m
   Surface roughness length                         =    0.030 m

   Nyquist frequency of turbulent wind field        =   10.000 Hz

   Number of time steps in the FFT                  =    12600
   Number of time steps output                      =    12600
   Number of points simulated                       =      289


Mean Flow Angles:

   Vertical   =   0.0 degrees
   Horizontal =   0.0 degrees

Mean Wind Speed Profile:

   Height    Wind Speed   Horizontal Angle  Vertical Angle  U-comp (X)   V-comp (Y)   W-comp (Z)
     (m)        (m/s)         (degrees)       (degrees)       (m/s)        (m/s)        (m/s)   
   ------    ----------   ----------------  --------------  ----------   ----------   ----------
    179.0       10.11            0.00            0.00         10.11         0.00         0.00
    171.5       10.03            0.00            0.00         10.03         0.00         0.00
    164.0        9.94            0.00            0.00          9.94         0.00         0.00
    156.5        9.84            0.00            0.00          9.84         0.00         0.00
    149.0        9.75            0.00            0.00          9.75         0.00         0.00
    141.5        9.65            0.00            0.00          9.65         0.00         0.00
    134.0        9.54            0.00            0.00          9.54         0.00         0.00
    126.5        9.43            0.00            0.00          9.43         0.00         0.00
    119.0        9.32            0.00            0.00          9.32         0.00         0.00
    111.5        9.20            0.00            0.00          9.20         0.00         0.00
    104.0        9.07            0.00            0.00          9.07         0.00         0.00
     96.5        8.94            0.00            0.00          8.94         0.00         0.00
     89.0        8.79            0.00            0.00          8.79         0.00         0.00
     81.5        8.64            0.00            0.00          8.64         0.00         0.00
     74.0        8.47            0.00            0.00          8.47         0.00         0.00
     66.5        8.29            0.00            0.00          8.29         0.00         0.00
     59.0        8.10            0.00            0.00          8.10         0.00         0.00


Harvested Random Seeds after Generation of the Random Numbers:

    141216275 Harvested seed # 1
   1183643485 Harvested seed # 2
    137939508 Harvested seed # 3
   1179318060 Harvested seed # 4
    139446878 Harvested seed # 5
   1178662699 Harvested seed # 6
    137284272 Harvested seed # 7
   1176631063 Harvested seed # 8
    829050643 Harvested seed # 9
    780948317 Harvested seed #10
   1161311796 Harvested seed #11
  -1689586644 Harvested seed #12


Hub-Height Simulated Turbulence Statistical Summary:

   Type of Wind        Min (m/s)   Mean (m/s)    Max (m/s)  Sigma (m/s)       TI (%)
   ----------------    ---------   ----------    ---------  -----------       ------
   Longitudinal (u)        -1.06         9.32        20.72        2.757       29.586
   Lateral (v)            -11.26        -0.00        12.14        2.160       23.179
   Vertical (w)            -6.15        -0.00         5.99        1.350       14.484
   U component             -1.06         9.32        20.72        2.757       29.586
   V component            -11.26        -0.00        12.14        2.160       23.179
   W component             -6.15        -0.00         5.99        1.350       14.484
   Horizontal (U&V)         0.42         9.57        20.89        2.743       28.667
   Total                    0.43         9.67        21.00        2.727       28.207

                       Min Reynolds     Mean Reynolds    Max Reynolds    Correlation
   Product             Stress (m/s)^2   Stress (m/s)^2   Stress (m/s)^2  Coefficient
   ----------------    --------------   --------------   --------------  -----------
   u'w'                    -33.294             0.007            46.424         0.002
   u'v'                    -77.372             0.044            75.585         0.007
   v'w'                    -32.527            -0.103            48.842        -0.035


   Friction Velocity (Ustar)  =      0.082 m/s
   Maximum Instantaneous TKE  =     87.158 (m/s)^2
   Maximum Instantaneous CTKE =     38.930 (m/s)^2


Grid Point Variance Summary:

   Y-coord  -60.00  -52.50  -45.00  -37.50  -30.00  -22.50  -15.00   -7.50    0.00    7.50   15.00   22.50   30.00   37.50   45.00   52.50   60.00

   Height   Standard deviation at grid points for the u component:
   179.00    2.666   2.644   2.634   2.668   2.763   2.883   2.789   2.705   2.770   2.725   2.691   2.586   2.696   2.717   2.720   2.654   2.562
   171.50    2.677   2.751   2.638   2.764   2.708   2.705   2.707   2.731   2.737   2.716   2.645   2.669   2.686   2.672   2.649   2.557   2.571
   164.00    2.699   2.707   2.749   2.829   2.709   2.813   2.693   2.657   2.722   2.675   2.585   2.559   2.583   2.612   2.619   2.621   2.681
   156.50    2.595   2.579   2.760   2.731   2.748   2.797   2.730   2.664   2.779   2.705   2.600   2.624   2.478   2.519   2.556   2.663   2.625
   149.00    2.587   2.657   2.662   2.606   2.549   2.617   2.720   2.801   2.887   2.680   2.716   2.641   2.545   2.585   2.586   2.554   2.636
   141.50    2.673   2.588   2.568   2.483   2.477   2.669   2.606   2.823   2.783   2.743   2.800   2.757   2.588   2.602   2.552   2.622   2.679
   134.00    2.534   2.599   2.594   2.486   2.689   2.613   2.641   2.722   2.726   2.648   2.778   2.836   2.716   2.628   2.602   2.679   2.745
   126.50    2.504   2.485   2.532   2.554   2.714   2.612   2.682   2.692   2.731   2.810   2.789   2.671   2.757   2.708   2.662   2.736   2.800
   119.00    2.572   2.562   2.496   2.663   2.692   2.708   2.668   2.754   2.757   2.720   2.697   2.812   2.753   2.640   2.683   2.671   2.720
   111.50    2.584   2.533   2.536   2.696   2.629   2.749   2.696   2.778   2.760   2.717   2.742   2.930   2.723   2.641   2.720   2.662   2.777
   104.00    2.589   2.664   2.695   2.573   2.620   2.819   2.919   2.731   2.799   2.682   2.763   2.790   2.773   2.763   2.720   2.668   2.773
    96.50    2.563   2.656   2.697   2.681   2.777   2.727   2.928   2.885   2.877   2.819   2.937   2.706   2.660   2.826   2.739   2.705   2.812
    89.00    2.533   2.488   2.649   2.856   2.642   2.730   2.802   2.943   2.840   2.926   2.812   2.746   2.834   2.817   2.781   2.709   2.790
    81.50    2.467   2.698   2.777   2.794   2.828   2.768   2.734   2.784   2.775   2.715   2.685   2.756   2.829   2.825   2.870   2.734   2.802
    74.00    2.728   2.778   2.749   2.932   2.865   2.882   2.877   2.796   2.765   2.730   2.880   2.849   2.881   2.785   2.928   3.033   2.844
    66.50    2.696   2.774   2.819   2.955   3.011   2.817   2.729   2.748   2.813   2.883   2.877   2.912   2.932   2.902   2.957   2.955   2.842
    59.00    2.700   2.697   2.747   2.928   2.903   2.773   2.699   2.748   2.832   2.741   2.866   2.812   2.858   2.871   2.887   2.965   2.826

   Height   Standard deviation at grid points for the v component:
   179.00    2.160   2.160   2.160   2.160   2.160   2.160   2.160   2.160   2.160   2.160   2.160   2.160   2.160   2.160   2.160   2.160   2.160
   171.50    2.160   2.160   2.160   2.160   2.160   2.160   2.160   2.160   2.160   2.160   2.160   2.160   2.160   2.160   2.160   2.160   2.160
   164.00    2.160   2.160   2.160   2.160   2.160   2.160   2.160   2.160   2.160   2.160   2.160   2.160   2.160   2.160   2.160   2.160   2.160
   156.50    2.160   2.160   2.160   2.160   2.160   2.160   2.160   2.160   2.160   2.160   2.160   2.160   2.160   2.160   2.160   2.160   2.160
   149.00    2.160   2.160   2.160   2.160   2.160   2.160   2.160   2.160   2.160   2.160   2.160   2.160   2.160   2.160   2.160   2.160   2.160
   141.50    2.160   2.160   2.160   2.160   2.160   2.160   2.160   2.160   2.160   2.160   2.160   2.160   2.160   2.160   2.160   2.160   2.160
   134.00    2.160   2.160   2.160   2.160   2.160   2.160   2.160   2.160   2.160   2.160   2.160   2.160   2.160   2.160   2.160   2.160   2.160
   126.50    2.160   2.160   2.160   2.160   2.160   2.160   2.160   2.160   2.160   2.160   2.160   2.160   2.160   2.160   2.160   2.160   2.160
   119.00    2.160   2.160   2.160   2.160   2.160   2.160   2.160   2.160   2.160   2.160   2.160   2.160   2.160   2.160   2.160   2.160   2.160
   111.50    2.160   2.160   2.160   2.160   2.160   2.160   2.160   2.160   2.160   2.160   2.160   2.160   2.160   2.160   2.160   2.160   2.160
   104.00    2.160   2.160   2.160   2.160   2.160   2.160   2.160   2.160   2.160   2.160   2.160   2.160   2.160   2.160   2.160   2.160   2.160
    96.50    2.160   2.160   2.160   2.160   2.160   2.160   2.160   2.160   2.160   2.160   2.160   2.160   2.160   2.160   2.160   2.160   2.160
    89.00    2.160   2.160   2.160   2.160   2.160   2.160   2.160   2.160   2.160   2.160   2.160   2.160   2.160   2.160   2.160   2.160   2.160
    81.50    2.160   2.160   2.160   2.160   2.160   2.160   2.160   2.160   2.160   2.160   2.160   2.160   2.160   2.160   2.160   2.160   2.160
    74.00    2.160   2.160   2.160   2.160   2.160   2.160   2.160   2.160   2.160   2.160   2.160   2.160   2.160   2.160   2.160   2.160   2.160
    66.50    2.160   2.160   2.160   2.160   2.160   2.160   2.160   2.160   2.160   2.160   2.160   2.160   2.160   2.160   2.160   2.160   2.160
    59.00    2.160   2.160   2.160   2.160   2.160   2.160   2.160   2.160   2.160   2.160   2.160   2.160   2.160   2.160   2.160   2.160   2.160

   Height   Standard deviation at grid points for the w component:
   179.00    1.350   1.350   1.350   1.350   1.350   1.350   1.350   1.350   1.350   1.350   1.350   1.350   1.350   1.350   1.350   1.350   1.350
   171.50    1.350   1.350   1.350   1.350   1.350   1.350   1.350   1.350   1.350   1.350   1.350   1.350   1.350   1.350   1.350   1.350   1.350
   164.00    1.350   1.350   1.350   1.350   1.350   1.350   1.350   1.350   1.350   1.350   1.350   1.350   1.350   1.350   1.350   1.350   1.350
   156.50    1.350   1.350   1.350   1.350   1.350   1.350   1.350   1.350   1.350   1.350   1.350   1.350   1.350   1.350   1.350   1.350   1.350
   149.00    1.350   1.350   1.350   1.350   1.350   1.350   1.350   1.350   1.350   1.350   1.350   1.350   1.350   1.350   1.350   1.350   1.350
   141.50    1.350   1.350   1.350   1.350   1.350   1.350   1.350   1.350   1.350   1.350   1.350   1.350   1.350   1.350   1.350   1.350   1.350
   134.00    1.350   1.350   1.350   1.350   1.350   1.350   1.350   1.350   1.350   1.350   1.350   1.350   1.350   1.350   1.350   1.350   1.350
   126.50    1.350   1.350   1.350   1.350   1.350   1.350   1.350   1.350   1.350   1.350   1.350   1.350   1.350   1.350   1.350   1.350   1.350
   119.00    1.350   1.350   1.350   1.350   1.350   1.350   1.350   1.350   1.350   1.350   1.350   1.350   1.350   1.350   1.350   1.350   1.350
   111.50    1.350   1.350   1.350   1.350   1.350   1.350   1.350   1.350   1.350   1.350   1.350   1.350   1.350   1.350   1.350   1.350   1.350
   104.00    1.350   1.350   1.350   1.350   1.350   1.350   1.350   1.350   1.350   1.350   1.350   1.350   1.350   1.350   1.350   1.350   1.350
    96.50    1.350   1.350   1.350   1.350   1.350   1.350   1.350   1.350   1.350   1.350   1.350   1.350   1.350   1.350   1.350   1.350   1.350
    89.00    1.350   1.350   1.350   1.350   1.350   1.350   1.350   1.350   1.350   1.350   1.350   1.350   1.350   1.350   1.350   1.350   1.350
    81.50    1.350   1.350   1.350   1.350   1.350   1.350   1.350   1.350   1.350   1.350   1.350   1.350   1.350   1.350   1.350   1.350   1.350
    74.00    1.350   1.350   1.350   1.350   1.350   1.350   1.350   1.350   1.350   1.350   1.350   1.350   1.350   1.350   1.350   1.350   1.350
    66.50    1.350   1.350   1.350   1.350   1.350   1.350   1.350   1.350   1.350   1.350   1.350   1.350   1.350   1.350   1.350   1.350   1.350
    59.00    1.350   1.350   1.350   1.350   1.350   1.350   1.350   1.350   1.350   1.350   1.350   1.350   1.350   1.350   1.350   1.350   1.350

   Mean standard deviation across all grid points:
      u component:    2.720 m/s
      v component:    2.160 m/s
      w component:    1.350 m/s


U-component (X) statistics from the interpolated hub point:

   Mean =   9.3186 m/s
   TI   =  29.5864 %


Processing complete.  63.237 CPU seconds used.
