
This summary file was generated by TurbSim (v2.00.01a-bjj, 14-Oct-2014) on 25-Oct-2015 at 12:37:42.


Runtime Options:

 203364859  Random seed #1
 938560047  Random seed #2
         F  Output binary HH turbulence parameters?
         F  Output formatted turbulence parameters?
         F  Output AeroDyn HH files?
         T  Output AeroDyn FF files?
         F  Output BLADED FF files?
         F  Output tower data?
         F  Output formatted FF files?
         F  Output coherent turbulence time step file?
         T  Clockwise rotation when looking downwind?
 0 -  NONE  IEC turbulence models scaled to exact specified standard deviation


Turbine/Model Specifications:

        15  Vertical grid-point matrix dimension
        15  Horizontal grid-point matrix dimension
     0.050  Time step [seconds]
   630.000  Analysis time [seconds]
   630.000  Usable output time [seconds]
    60.000  Hub height [m]
    56.000  Grid height [m]
    56.000  Grid width [m]
     0.000  Vertical flow angle [degrees]
     0.000  Horizontal flow angle [degrees]


Meteorological Boundary Conditions:

    USRINP  Uniform user-input spectral model
       N/A  IEC standard
       N/A  IEC turbulence characteristic
       N/A  IEC turbulence type
       N/A  IEC Extreme Turbulence Model (ETM) "c" parameter [m/s]
       PL   Wind profile type
   100.000  Reference height [m]
    22.000  Reference wind speed [m/s]
       N/A  Jet height [m]
     0.200  Power law exponent
     0.030  Surface roughness length [m]


Non-IEC Meteorological Boundary Conditions:

    45.000  Site latitude [degrees]
     0.050  Gradient Richardson number
     1.042  Friction or shear velocity [m/s]
       N/A  Mixing layer depth [m]
       N/A  Mean hub u'w' Reynolds stress
       N/A  Mean hub u'v' Reynolds stress
       N/A  Mean hub v'w' Reynolds stress


Spatial Coherence Models:

       IEC  u-component coherence model
      NONE  v-component coherence model
      NONE  w-component coherence model
(   12.000, 0.353E-03)  u-component coherence parameters
                   N/A  v-component coherence parameters
                   N/A  w-component coherence parameters
       N/A  Coherence exponent


You have requested that the following file(s) be generated:

   /scratch/jrinker/IOFiles/WP0.75A08V00/WP0.75A08V00_b1333.bts (AeroDyn/TurbSim full-field wind file)


Turbulence Simulation Scaling Parameter Summary:

   Turbulence model used                            =  Uniform user-input
   Gradient Richardson number                       =    0.050
   Monin-Obukhov (M-O) z/L parameter                =    0.067
   Monin-Obukhov (M-O) length scale                 =  900.000 m
   Mean wind speed at hub height                    =   19.863 m/s

   Wind profile type                                =  Power law
   Power law exponent                               =    0.200
   Mean shear across rotor disk                     =    0.070 (m/s)/m
   Assumed rotor diameter                           =   56.000 m
   Surface roughness length                         =    0.030 m

   Nyquist frequency of turbulent wind field        =   10.000 Hz

   Number of time steps in the FFT                  =    12600
   Number of time steps output                      =    12600
   Number of points simulated                       =      225


Mean Flow Angles:

   Vertical   =   0.0 degrees
   Horizontal =   0.0 degrees

Mean Wind Speed Profile:

   Height    Wind Speed   Horizontal Angle  Vertical Angle  U-comp (X)   V-comp (Y)   W-comp (Z)
     (m)        (m/s)         (degrees)       (degrees)       (m/s)        (m/s)        (m/s)   
   ------    ----------   ----------------  --------------  ----------   ----------   ----------
     88.0       21.44            0.00            0.00         21.44         0.00         0.00
     84.0       21.25            0.00            0.00         21.25         0.00         0.00
     80.0       21.04            0.00            0.00         21.04         0.00         0.00
     76.0       20.83            0.00            0.00         20.83         0.00         0.00
     72.0       20.60            0.00            0.00         20.60         0.00         0.00
     68.0       20.37            0.00            0.00         20.37         0.00         0.00
     64.0       20.12            0.00            0.00         20.12         0.00         0.00
     60.0       19.86            0.00            0.00         19.86         0.00         0.00
     56.0       19.59            0.00            0.00         19.59         0.00         0.00
     52.0       19.30            0.00            0.00         19.30         0.00         0.00
     48.0       19.00            0.00            0.00         19.00         0.00         0.00
     44.0       18.67            0.00            0.00         18.67         0.00         0.00
     40.0       18.32            0.00            0.00         18.32         0.00         0.00
     36.0       17.93            0.00            0.00         17.93         0.00         0.00
     32.0       17.52            0.00            0.00         17.52         0.00         0.00


Harvested Random Seeds after Generation of the Random Numbers:

    217717046 Harvested seed # 1
    931809833 Harvested seed # 2
    214768050 Harvested seed # 3
    931023403 Harvested seed # 4
    206117275 Harvested seed # 5
    939477541 Harvested seed # 6
    204216804 Harvested seed # 7
    930564824 Harvested seed # 8
    301642038 Harvested seed # 9
  -1886736855 Harvested seed #10
    583903410 Harvested seed #11
   -612464853 Harvested seed #12


Hub-Height Simulated Turbulence Statistical Summary:

   Type of Wind        Min (m/s)   Mean (m/s)    Max (m/s)  Sigma (m/s)       TI (%)
   ----------------    ---------   ----------    ---------  -----------       ------
   Longitudinal (u)         4.39        19.86        34.00        4.198       21.137
   Lateral (v)            -11.46        -0.00        12.99        3.520       17.721
   Vertical (w)            -7.49        -0.00         7.18        2.200       11.074
   U component              4.39        19.86        34.00        4.198       21.137
   V component            -11.46        -0.00        12.99        3.520       17.721
   W component             -7.49        -0.00         7.18        2.200       11.074
   Horizontal (U&V)         5.27        20.17        34.38        4.216       20.904
   Total                    6.49        20.29        34.87        4.193       20.663

                       Min Reynolds     Mean Reynolds    Max Reynolds    Correlation
   Product             Stress (m/s)^2   Stress (m/s)^2   Stress (m/s)^2  Coefficient
   ----------------    --------------   --------------   --------------  -----------
   u'w'                    -82.827             0.621            88.900         0.067
   u'v'                   -119.384            -1.802            68.505        -0.122
   v'w'                    -51.974             0.057            43.776         0.007


   Friction Velocity (Ustar)  =      0.788 m/s
   Maximum Instantaneous TKE  =    135.726 (m/s)^2
   Maximum Instantaneous CTKE =     63.618 (m/s)^2


Grid Point Variance Summary:

   Y-coord  -28.00  -24.00  -20.00  -16.00  -12.00   -8.00   -4.00    0.00    4.00    8.00   12.00   16.00   20.00   24.00   28.00

   Height   Standard deviation at grid points for the u component:
    88.00    4.136   3.936   4.078   3.673   3.821   3.971   4.022   4.110   4.210   4.115   4.383   4.429   4.499   4.148   4.442
    84.00    3.989   3.948   3.903   3.995   4.018   4.073   4.111   4.240   4.124   4.343   4.245   4.457   4.532   4.462   4.407
    80.00    4.120   4.214   3.895   3.906   4.088   4.108   4.320   4.401   4.264   4.229   4.217   4.332   4.183   4.174   4.182
    76.00    4.137   4.200   4.157   3.995   4.119   4.312   4.400   4.364   4.210   4.207   4.267   4.225   3.927   4.221   4.151
    72.00    4.240   4.267   4.262   4.095   4.057   4.333   4.206   4.150   3.869   4.184   4.102   3.845   3.704   4.013   4.175
    68.00    4.272   4.549   4.348   4.227   4.370   4.097   4.191   3.906   3.932   3.931   4.005   4.062   3.904   3.966   3.986
    64.00    4.562   4.741   4.635   4.465   4.502   4.380   4.197   3.893   3.772   3.834   3.962   4.056   3.874   4.008   3.965
    60.00    4.552   4.756   4.615   4.364   4.452   4.416   4.057   4.198   3.901   3.634   3.717   3.866   4.018   4.209   4.023
    56.00    4.818   4.941   4.638   4.354   4.444   4.461   4.277   4.300   3.918   3.828   4.020   4.169   3.945   4.125   4.079
    52.00    4.836   4.900   4.882   4.631   4.515   4.445   4.591   4.454   4.261   4.286   4.485   4.590   4.140   4.145   4.155
    48.00    4.613   4.877   5.007   4.987   4.741   4.661   4.634   4.643   4.152   4.157   4.586   4.528   4.462   4.459   4.257
    44.00    4.480   4.692   4.615   4.687   4.681   4.791   4.758   4.455   4.380   4.173   4.568   4.732   4.505   4.535   4.670
    40.00    4.473   4.497   4.635   4.654   4.633   4.857   4.718   4.501   4.327   4.585   4.812   4.940   4.680   4.787   4.714
    36.00    4.485   4.354   4.736   4.525   4.621   4.815   4.505   4.577   4.499   4.639   5.094   4.924   4.779   4.892   4.869
    32.00    4.403   4.488   4.353   4.453   4.610   4.911   4.733   4.523   4.461   4.710   5.038   4.813   4.972   4.989   4.910

   Height   Standard deviation at grid points for the v component:
    88.00    3.520   3.520   3.520   3.520   3.520   3.520   3.520   3.520   3.520   3.520   3.520   3.520   3.520   3.520   3.520
    84.00    3.520   3.520   3.520   3.520   3.520   3.520   3.520   3.520   3.520   3.520   3.520   3.520   3.520   3.520   3.520
    80.00    3.520   3.520   3.520   3.520   3.520   3.520   3.520   3.520   3.520   3.520   3.520   3.520   3.520   3.520   3.520
    76.00    3.520   3.520   3.520   3.520   3.520   3.520   3.520   3.520   3.520   3.520   3.520   3.520   3.520   3.520   3.520
    72.00    3.520   3.520   3.520   3.520   3.520   3.520   3.520   3.520   3.520   3.520   3.520   3.520   3.520   3.520   3.520
    68.00    3.520   3.520   3.520   3.520   3.520   3.520   3.520   3.520   3.520   3.520   3.520   3.520   3.520   3.520   3.520
    64.00    3.520   3.520   3.520   3.520   3.520   3.520   3.520   3.520   3.520   3.520   3.520   3.520   3.520   3.520   3.520
    60.00    3.520   3.520   3.520   3.520   3.520   3.520   3.520   3.520   3.520   3.520   3.520   3.520   3.520   3.520   3.520
    56.00    3.520   3.520   3.520   3.520   3.520   3.520   3.520   3.520   3.520   3.520   3.520   3.520   3.520   3.520   3.520
    52.00    3.520   3.520   3.520   3.520   3.520   3.520   3.520   3.520   3.520   3.520   3.520   3.520   3.520   3.520   3.520
    48.00    3.520   3.520   3.520   3.520   3.520   3.520   3.520   3.520   3.520   3.520   3.520   3.520   3.520   3.520   3.520
    44.00    3.520   3.520   3.520   3.520   3.520   3.520   3.520   3.520   3.520   3.520   3.520   3.520   3.520   3.520   3.520
    40.00    3.520   3.520   3.520   3.520   3.520   3.520   3.520   3.520   3.520   3.520   3.520   3.520   3.520   3.520   3.520
    36.00    3.520   3.520   3.520   3.520   3.520   3.520   3.520   3.520   3.520   3.520   3.520   3.520   3.520   3.520   3.520
    32.00    3.520   3.520   3.520   3.520   3.520   3.520   3.520   3.520   3.520   3.520   3.520   3.520   3.520   3.520   3.520

   Height   Standard deviation at grid points for the w component:
    88.00    2.200   2.200   2.200   2.200   2.200   2.200   2.200   2.200   2.200   2.200   2.200   2.200   2.200   2.200   2.200
    84.00    2.200   2.200   2.200   2.200   2.200   2.200   2.200   2.200   2.200   2.200   2.200   2.200   2.200   2.200   2.200
    80.00    2.200   2.200   2.200   2.200   2.200   2.200   2.200   2.200   2.200   2.200   2.200   2.200   2.200   2.200   2.200
    76.00    2.200   2.200   2.200   2.200   2.200   2.200   2.200   2.200   2.200   2.200   2.200   2.200   2.200   2.200   2.200
    72.00    2.200   2.200   2.200   2.200   2.200   2.200   2.200   2.200   2.200   2.200   2.200   2.200   2.200   2.200   2.200
    68.00    2.200   2.200   2.200   2.200   2.200   2.200   2.200   2.200   2.200   2.200   2.200   2.200   2.200   2.200   2.200
    64.00    2.200   2.200   2.200   2.200   2.200   2.200   2.200   2.200   2.200   2.200   2.200   2.200   2.200   2.200   2.200
    60.00    2.200   2.200   2.200   2.200   2.200   2.200   2.200   2.200   2.200   2.200   2.200   2.200   2.200   2.200   2.200
    56.00    2.200   2.200   2.200   2.200   2.200   2.200   2.200   2.200   2.200   2.200   2.200   2.200   2.200   2.200   2.200
    52.00    2.200   2.200   2.200   2.200   2.200   2.200   2.200   2.200   2.200   2.200   2.200   2.200   2.200   2.200   2.200
    48.00    2.200   2.200   2.200   2.200   2.200   2.200   2.200   2.200   2.200   2.200   2.200   2.200   2.200   2.200   2.200
    44.00    2.200   2.200   2.200   2.200   2.200   2.200   2.200   2.200   2.200   2.200   2.200   2.200   2.200   2.200   2.200
    40.00    2.200   2.200   2.200   2.200   2.200   2.200   2.200   2.200   2.200   2.200   2.200   2.200   2.200   2.200   2.200
    36.00    2.200   2.200   2.200   2.200   2.200   2.200   2.200   2.200   2.200   2.200   2.200   2.200   2.200   2.200   2.200
    32.00    2.200   2.200   2.200   2.200   2.200   2.200   2.200   2.200   2.200   2.200   2.200   2.200   2.200   2.200   2.200

   Mean standard deviation across all grid points:
      u component:    4.350 m/s
      v component:    3.520 m/s
      w component:    2.200 m/s


U-component (X) statistics from the interpolated hub point:

   Mean =  19.8634 m/s
   TI   =  21.1366 %


Processing complete.  27.264 CPU seconds used.
