
This summary file was generated by TurbSim (v2.00.01a-bjj, 14-Oct-2014) on 23-Oct-2015 at 18:16:48.


Runtime Options:

 538552039  Random seed #1
-805030332  Random seed #2
         F  Output binary HH turbulence parameters?
         F  Output formatted turbulence parameters?
         F  Output AeroDyn HH files?
         T  Output AeroDyn FF files?
         F  Output BLADED FF files?
         F  Output tower data?
         F  Output formatted FF files?
         F  Output coherent turbulence time step file?
         T  Clockwise rotation when looking downwind?
 0 -  NONE  IEC turbulence models scaled to exact specified standard deviation


Turbine/Model Specifications:

        17  Vertical grid-point matrix dimension
        17  Horizontal grid-point matrix dimension
     0.050  Time step [seconds]
   630.000  Analysis time [seconds]
   630.000  Usable output time [seconds]
    84.000  Hub height [m]
    80.000  Grid height [m]
    80.000  Grid width [m]
     0.000  Vertical flow angle [degrees]
     0.000  Horizontal flow angle [degrees]


Meteorological Boundary Conditions:

    USRINP  Uniform user-input spectral model
       N/A  IEC standard
       N/A  IEC turbulence characteristic
       N/A  IEC turbulence type
       N/A  IEC Extreme Turbulence Model (ETM) "c" parameter [m/s]
       PL   Wind profile type
   100.000  Reference height [m]
    10.500  Reference wind speed [m/s]
       N/A  Jet height [m]
     0.200  Power law exponent
     0.030  Surface roughness length [m]


Non-IEC Meteorological Boundary Conditions:

    45.000  Site latitude [degrees]
     0.050  Gradient Richardson number
     0.497  Friction or shear velocity [m/s]
       N/A  Mixing layer depth [m]
       N/A  Mean hub u'w' Reynolds stress
       N/A  Mean hub u'v' Reynolds stress
       N/A  Mean hub v'w' Reynolds stress


Spatial Coherence Models:

       IEC  u-component coherence model
      NONE  v-component coherence model
      NONE  w-component coherence model
(   12.000, 0.353E-03)  u-component coherence parameters
                   N/A  v-component coherence parameters
                   N/A  w-component coherence parameters
       N/A  Coherence exponent


You have requested that the following file(s) be generated:

   /scratch/jrinker/IOFiles/WP1.5A08V03/WP1.5A08V03_43333.bts (AeroDyn/TurbSim full-field wind file)


Turbulence Simulation Scaling Parameter Summary:

   Turbulence model used                            =  Uniform user-input
   Gradient Richardson number                       =    0.050
   Monin-Obukhov (M-O) z/L parameter                =    0.067
   Monin-Obukhov (M-O) length scale                 = 1260.000 m
   Mean wind speed at hub height                    =   10.140 m/s

   Wind profile type                                =  Power law
   Power law exponent                               =    0.200
   Mean shear across rotor disk                     =    0.026 (m/s)/m
   Assumed rotor diameter                           =   80.000 m
   Surface roughness length                         =    0.030 m

   Nyquist frequency of turbulent wind field        =   10.000 Hz

   Number of time steps in the FFT                  =    12600
   Number of time steps output                      =    12600
   Number of points simulated                       =      289


Mean Flow Angles:

   Vertical   =   0.0 degrees
   Horizontal =   0.0 degrees

Mean Wind Speed Profile:

   Height    Wind Speed   Horizontal Angle  Vertical Angle  U-comp (X)   V-comp (Y)   W-comp (Z)
     (m)        (m/s)         (degrees)       (degrees)       (m/s)        (m/s)        (m/s)   
   ------    ----------   ----------------  --------------  ----------   ----------   ----------
    124.0       10.96            0.00            0.00         10.96         0.00         0.00
    119.0       10.87            0.00            0.00         10.87         0.00         0.00
    114.0       10.78            0.00            0.00         10.78         0.00         0.00
    109.0       10.68            0.00            0.00         10.68         0.00         0.00
    104.0       10.58            0.00            0.00         10.58         0.00         0.00
     99.0       10.48            0.00            0.00         10.48         0.00         0.00
     94.0       10.37            0.00            0.00         10.37         0.00         0.00
     89.0       10.26            0.00            0.00         10.26         0.00         0.00
     84.0       10.14            0.00            0.00         10.14         0.00         0.00
     79.0       10.02            0.00            0.00         10.02         0.00         0.00
     74.0        9.89            0.00            0.00          9.89         0.00         0.00
     69.0        9.75            0.00            0.00          9.75         0.00         0.00
     64.0        9.60            0.00            0.00          9.60         0.00         0.00
     59.0        9.45            0.00            0.00          9.45         0.00         0.00
     54.0        9.28            0.00            0.00          9.28         0.00         0.00
     49.0        9.10            0.00            0.00          9.10         0.00         0.00
     44.0        8.91            0.00            0.00          8.91         0.00         0.00


Harvested Random Seeds after Generation of the Random Numbers:

    545367561 Harvested seed # 1
   -803784997 Harvested seed # 2
    551331466 Harvested seed # 3
   -791923120 Harvested seed # 4
    538748477 Harvested seed # 5
   -800967099 Harvested seed # 6
    538224156 Harvested seed # 7
   -794937645 Harvested seed # 8
    964777481 Harvested seed # 9
  -1541946917 Harvested seed #10
    937182602 Harvested seed #11
   -741572272 Harvested seed #12


Hub-Height Simulated Turbulence Statistical Summary:

   Type of Wind        Min (m/s)   Mean (m/s)    Max (m/s)  Sigma (m/s)       TI (%)
   ----------------    ---------   ----------    ---------  -----------       ------
   Longitudinal (u)        -1.86        10.14        25.56        5.063       49.928
   Lateral (v)             -9.92        -0.00         9.13        3.361       33.149
   Vertical (w)            -8.93        -0.00        10.54        2.100       20.705
   U component             -1.86        10.14        25.56        5.063       49.928
   V component             -9.92        -0.00         9.13        3.361       33.149
   W component             -8.93        -0.00        10.54        2.100       20.705
   Horizontal (U&V)         0.60        10.78        26.30        4.853       45.015
   Total                    0.61        11.00        26.37        4.814       43.769

                       Min Reynolds     Mean Reynolds    Max Reynolds    Correlation
   Product             Stress (m/s)^2   Stress (m/s)^2   Stress (m/s)^2  Coefficient
   ----------------    --------------   --------------   --------------  -----------
   u'w'                   -110.733             1.239            88.919         0.117
   u'v'                   -100.998            -2.564           105.491        -0.151
   v'w'                    -31.972             0.367            54.952         0.052


   Friction Velocity (Ustar)  =      1.113 m/s
   Maximum Instantaneous TKE  =    139.982 (m/s)^2
   Maximum Instantaneous CTKE =     65.820 (m/s)^2


Grid Point Variance Summary:

   Y-coord  -40.00  -35.00  -30.00  -25.00  -20.00  -15.00  -10.00   -5.00    0.00    5.00   10.00   15.00   20.00   25.00   30.00   35.00   40.00

   Height   Standard deviation at grid points for the u component:
   124.00    6.859   7.376   7.209   7.772   8.053   7.952   7.603   7.487   7.565   7.753   8.529   9.011   8.888   8.529   8.664   8.302   8.021
   119.00    7.248   7.509   7.327   7.433   7.619   7.754   7.758   7.783   7.517   7.699   8.171   8.592   8.623   8.501   8.242   8.471   8.490
   114.00    7.102   7.488   7.803   7.261   7.449   7.254   7.416   7.450   7.377   7.550   7.745   8.199   7.981   8.195   8.207   8.102   7.952
   109.00    6.455   6.832   7.244   7.101   7.484   7.009   7.128   7.147   7.743   8.001   7.899   7.834   7.920   7.561   7.344   7.272   7.321
   104.00    5.844   6.043   6.559   6.899   7.099   6.791   7.309   6.945   7.364   7.475   7.511   7.534   7.305   7.216   6.632   6.425   6.668
    99.00    5.810   5.831   5.851   6.139   6.466   6.510   6.841   6.984   6.822   6.831   6.608   6.735   6.505   6.410   6.104   5.747   6.167
    94.00    5.573   5.256   4.913   5.416   5.857   5.688   6.124   6.328   6.381   6.084   6.006   6.257   6.362   5.981   5.695   6.061   5.952
    89.00    5.083   5.085   4.511   4.732   5.328   5.765   5.844   5.738   5.838   5.810   5.318   5.605   5.964   5.724   6.023   6.158   5.906
    84.00    5.127   4.600   4.401   4.943   5.182   5.136   5.601   5.477   5.063   5.011   4.924   5.076   5.522   5.289   6.020   5.983   5.690
    79.00    5.065   4.587   4.711   4.784   4.565   4.883   5.078   5.127   4.563   4.465   4.368   4.241   4.947   5.252   5.630   6.044   5.927
    74.00    4.703   4.998   4.744   4.615   4.720   5.085   4.962   4.887   4.744   4.553   4.363   4.549   4.598   4.944   5.146   5.752   5.676
    69.00    4.704   4.903   4.692   4.680   5.115   4.717   4.971   4.691   4.593   4.540   4.461   4.657   4.019   4.350   4.562   5.277   5.718
    64.00    4.538   4.843   4.915   4.709   4.872   4.917   5.231   4.605   4.833   4.571   4.054   4.218   4.107   4.388   4.513   5.258   5.461
    59.00    4.806   4.894   4.891   4.668   4.714   5.001   5.071   4.587   4.649   4.860   4.700   4.473   4.400   4.766   5.281   5.698   5.085
    54.00    4.792   4.852   4.533   4.892   4.848   4.819   4.261   4.578   4.726   4.867   4.983   4.703   4.746   4.939   5.136   5.335   5.168
    49.00    4.300   4.242   4.315   4.369   4.262   4.223   4.133   4.145   4.049   4.177   4.381   4.580   5.121   5.152   4.940   5.147   5.294
    44.00    4.206   4.045   4.058   4.059   3.960   4.020   3.980   3.976   3.827   4.119   4.561   4.714   4.923   4.895   4.785   4.970   5.016

   Height   Standard deviation at grid points for the v component:
   124.00    3.361   3.361   3.361   3.361   3.361   3.361   3.361   3.361   3.361   3.361   3.361   3.361   3.361   3.361   3.361   3.361   3.361
   119.00    3.361   3.361   3.361   3.361   3.361   3.361   3.361   3.361   3.361   3.361   3.361   3.361   3.361   3.361   3.361   3.361   3.361
   114.00    3.361   3.361   3.361   3.361   3.361   3.361   3.361   3.361   3.361   3.361   3.361   3.361   3.361   3.361   3.361   3.361   3.361
   109.00    3.361   3.361   3.361   3.361   3.361   3.361   3.361   3.361   3.361   3.361   3.361   3.361   3.361   3.361   3.361   3.361   3.361
   104.00    3.361   3.361   3.361   3.361   3.361   3.361   3.361   3.361   3.361   3.361   3.361   3.361   3.361   3.361   3.361   3.361   3.361
    99.00    3.361   3.361   3.361   3.361   3.361   3.361   3.361   3.361   3.361   3.361   3.361   3.361   3.361   3.361   3.361   3.361   3.361
    94.00    3.361   3.361   3.361   3.361   3.361   3.361   3.361   3.361   3.361   3.361   3.361   3.361   3.361   3.361   3.361   3.361   3.361
    89.00    3.361   3.361   3.361   3.361   3.361   3.361   3.361   3.361   3.361   3.361   3.361   3.361   3.361   3.361   3.361   3.361   3.361
    84.00    3.361   3.361   3.361   3.361   3.361   3.361   3.361   3.361   3.361   3.361   3.361   3.361   3.361   3.361   3.361   3.361   3.361
    79.00    3.361   3.361   3.361   3.361   3.361   3.361   3.361   3.361   3.361   3.361   3.361   3.361   3.361   3.361   3.361   3.361   3.361
    74.00    3.361   3.361   3.361   3.361   3.361   3.361   3.361   3.361   3.361   3.361   3.361   3.361   3.361   3.361   3.361   3.361   3.361
    69.00    3.361   3.361   3.361   3.361   3.361   3.361   3.361   3.361   3.361   3.361   3.361   3.361   3.361   3.361   3.361   3.361   3.361
    64.00    3.361   3.361   3.361   3.361   3.361   3.361   3.361   3.361   3.361   3.361   3.361   3.361   3.361   3.361   3.361   3.361   3.361
    59.00    3.361   3.361   3.361   3.361   3.361   3.361   3.361   3.361   3.361   3.361   3.361   3.361   3.361   3.361   3.361   3.361   3.361
    54.00    3.361   3.361   3.361   3.361   3.361   3.361   3.361   3.361   3.361   3.361   3.361   3.361   3.361   3.361   3.361   3.361   3.361
    49.00    3.361   3.361   3.361   3.361   3.361   3.361   3.361   3.361   3.361   3.361   3.361   3.361   3.361   3.361   3.361   3.361   3.361
    44.00    3.361   3.361   3.361   3.361   3.361   3.361   3.361   3.361   3.361   3.361   3.361   3.361   3.361   3.361   3.361   3.361   3.361

   Height   Standard deviation at grid points for the w component:
   124.00    2.100   2.100   2.100   2.100   2.100   2.100   2.100   2.100   2.100   2.100   2.100   2.100   2.100   2.100   2.100   2.100   2.100
   119.00    2.100   2.100   2.100   2.100   2.100   2.100   2.100   2.100   2.100   2.100   2.100   2.100   2.100   2.100   2.100   2.100   2.100
   114.00    2.100   2.100   2.100   2.100   2.100   2.100   2.100   2.100   2.100   2.100   2.100   2.100   2.100   2.100   2.100   2.100   2.100
   109.00    2.100   2.100   2.100   2.100   2.100   2.100   2.100   2.100   2.100   2.100   2.100   2.100   2.100   2.100   2.100   2.100   2.100
   104.00    2.100   2.100   2.100   2.100   2.100   2.100   2.100   2.100   2.100   2.100   2.100   2.100   2.100   2.100   2.100   2.100   2.100
    99.00    2.100   2.100   2.100   2.100   2.100   2.100   2.100   2.100   2.100   2.100   2.100   2.100   2.100   2.100   2.100   2.100   2.100
    94.00    2.100   2.100   2.100   2.100   2.100   2.100   2.100   2.100   2.100   2.100   2.100   2.100   2.100   2.100   2.100   2.100   2.100
    89.00    2.100   2.100   2.100   2.100   2.100   2.100   2.100   2.100   2.100   2.100   2.100   2.100   2.100   2.100   2.100   2.100   2.100
    84.00    2.100   2.100   2.100   2.100   2.100   2.100   2.100   2.100   2.100   2.100   2.100   2.100   2.100   2.100   2.100   2.100   2.100
    79.00    2.100   2.100   2.100   2.100   2.100   2.100   2.100   2.100   2.100   2.100   2.100   2.100   2.100   2.100   2.100   2.100   2.100
    74.00    2.100   2.100   2.100   2.100   2.100   2.100   2.100   2.100   2.100   2.100   2.100   2.100   2.100   2.100   2.100   2.100   2.100
    69.00    2.100   2.100   2.100   2.100   2.100   2.100   2.100   2.100   2.100   2.100   2.100   2.100   2.100   2.100   2.100   2.100   2.100
    64.00    2.100   2.100   2.100   2.100   2.100   2.100   2.100   2.100   2.100   2.100   2.100   2.100   2.100   2.100   2.100   2.100   2.100
    59.00    2.100   2.100   2.100   2.100   2.100   2.100   2.100   2.100   2.100   2.100   2.100   2.100   2.100   2.100   2.100   2.100   2.100
    54.00    2.100   2.100   2.100   2.100   2.100   2.100   2.100   2.100   2.100   2.100   2.100   2.100   2.100   2.100   2.100   2.100   2.100
    49.00    2.100   2.100   2.100   2.100   2.100   2.100   2.100   2.100   2.100   2.100   2.100   2.100   2.100   2.100   2.100   2.100   2.100
    44.00    2.100   2.100   2.100   2.100   2.100   2.100   2.100   2.100   2.100   2.100   2.100   2.100   2.100   2.100   2.100   2.100   2.100

   Mean standard deviation across all grid points:
      u component:    5.810 m/s
      v component:    3.361 m/s
      w component:    2.100 m/s


U-component (X) statistics from the interpolated hub point:

   Mean =  10.1402 m/s
   TI   =  49.9276 %


Processing complete.  77.06 CPU seconds used.
