
These predictions were generated by FAST (v7.02.00d-bjj, 20-Feb-2013) on 20-Oct-2015 at 12:32:24.
The aerodynamic calculations were made by AeroDyn (v13.00.02a-bjj, 20-Feb-2013).

 FAST certification Test #13: WindPACT 1.5 MW Baseline with many DOFs with VS and VP and FF turbulence.

Time	WindVxi	WindVyi	WindVzi	HorWndDir	VerWndDir	BldPitch1	IPDefl1	IPDefl2	TwstDefl1	TwstDefl2	TwstDefl3	RootMxb2	RootMyb2	RootMzb2	LSShftFys	LSShftFzs	LSSTipMys	LSSTipMzs	YawBrTDxp	YawBrTDyp	YawBrMxn	YawBrMyn	YawBrMzn	GenSpeed	GenTq	GenPwr	GenCp	RotPwr	RotThrust	RotTorq	RotSpeed	OoPDefl1	IPDefl1	TSR	TwrBsFxt	TwrBsFyt	TwrBsMxt	TwrBsMyt	TwrBsMzt	TTDspFA	TTDspSS
(s)	(m/s)	(m/s)	(m/s)	(deg)	(deg)	(deg)	(m)	(m)	(deg)	(deg)	(deg)	(kN·m)	(kN·m)	(kN·m)	(kN)	(kN)	(kN·m)	(kN·m)	(m)	(m)	(kN·m)	(kN·m)	(kN·m)	(rpm)	(kN·m)	(kW)	(-)	(kW)	(kN)	(kN·m)	(rpm)	(m)	(m)	(-)	(kN)	(kN)	(kN·m)	(kN·m)	(kN·m)	(m)	(m)
   0.050	 1.200E+01	 0.000E+00	 0.000E+00	 0.000E+00	 0.000E+00	 7.300E+00	-5.821E-02	-8.052E-02	 0.000E+00	 0.000E+00	 0.000E+00	 3.252E+02	 2.178E+02	 6.375E+00	 5.336E+00	-2.418E+02	 2.165E+01	-9.841E+00	-1.001E-04	-2.623E-04	 6.224E+02	-7.970E+02	-8.768E+01	 1.779E+03	 8.177E+00	 1.447E+03	 3.552E-01	 1.403E+03	 5.674E+01	 6.607E+02	 2.028E+01	 1.495E-01	-5.821E-02	 6.193E+00	-6.080E+00	-9.420E+00	 6.117E+01	 7.826E+01	-8.768E+01	-1.001E-04	-2.623E-04
   0.100	 1.200E+01	 0.000E+00	 0.000E+00	 0.000E+00	 0.000E+00	 7.300E+00	-1.693E-01	-2.437E-01	 0.000E+00	 0.000E+00	 0.000E+00	 4.812E+02	 5.639E+02	 4.696E+00	 3.089E+00	-2.622E+02	 2.250E+01	-5.716E+00	 2.215E-04	-1.182E-03	 8.471E+02	-8.687E+02	-9.486E+01	 1.781E+03	 8.204E+00	 1.454E+03	 3.569E-01	 1.869E+03	 9.168E+01	 8.811E+02	 2.025E+01	 4.963E-01	-1.693E-01	 6.186E+00	 3.117E+01	 1.483E+01	-6.461E+02	 1.122E+03	-9.486E+01	 2.215E-04	-1.182E-03
   0.150	 1.200E+01	 0.000E+00	 0.000E+00	 0.000E+00	 0.000E+00	 7.300E+00	-2.519E-01	-3.793E-01	 0.000E+00	 0.000E+00	 0.000E+00	 5.501E+02	 1.016E+03	 2.948E+00	-1.193E-01	-2.819E+02	-1.291E+01	-9.880E+00	 2.641E-03	-2.741E-03	 8.573E+02	-9.542E+02	-8.550E+01	 1.796E+03	 8.337E+00	 1.490E+03	 3.657E-01	 1.855E+03	 1.443E+02	 8.681E+02	 2.041E+01	 9.198E-01	-2.519E-01	 6.233E+00	 5.164E+01	 4.815E+01	-1.506E+03	 1.786E+03	-8.549E+01	 2.641E-03	-2.741E-03
   0.200	 1.200E+01	 0.000E+00	 0.000E+00	 0.000E+00	 0.000E+00	 7.300E+00	-2.969E-01	-4.515E-01	 0.000E+00	 0.000E+00	 0.000E+00	 5.418E+02	 1.407E+03	 2.887E+00	 4.624E-01	-2.912E+02	-6.540E+01	-1.378E+01	 9.146E-03	-4.641E-03	 7.763E+02	-9.999E+02	-8.161E+01	 1.806E+03	 8.377E+00	 1.505E+03	 3.695E-01	 1.662E+03	 1.907E+02	 7.731E+02	 2.053E+01	 1.339E+00	-2.969E-01	 6.270E+00	 3.697E+01	 6.061E+01	-1.747E+03	 1.638E+03	-8.160E+01	 9.146E-03	-4.641E-03
   0.250	 1.200E+01	 0.000E+00	 0.000E+00	 0.000E+00	 0.000E+00	 7.300E+00	-3.433E-01	-4.841E-01	 0.000E+00	 0.000E+00	 0.000E+00	 4.785E+02	 1.639E+03	 4.093E+00	 6.017E+00	-2.885E+02	-9.751E+01	 1.312E-01	 2.101E-02	-6.533E-03	 6.801E+02	-9.770E+02	-7.844E+01	 1.805E+03	 8.377E+00	 1.504E+03	 3.692E-01	 1.472E+03	 2.176E+02	 6.852E+02	 2.052E+01	 1.690E+00	-3.433E-01	 6.266E+00	 1.409E+00	 3.759E+01	-1.006E+03	 1.110E+03	-7.842E+01	 2.101E-02	-6.533E-03
   0.300	 1.200E+01	 0.000E+00	 0.000E+00	 0.000E+00	 0.000E+00	 7.300E+00	-4.142E-01	-5.008E-01	 0.000E+00	 0.000E+00	 0.000E+00	 3.896E+02	 1.721E+03	 5.219E+00	 1.381E+01	-2.794E+02	-9.940E+01	 3.333E+01	 3.844E-02	-8.321E-03	 6.625E+02	-9.126E+02	-7.315E+01	 1.799E+03	 8.365E+00	 1.497E+03	 3.675E-01	 1.486E+03	 2.269E+02	 6.936E+02	 2.045E+01	 1.931E+00	-4.142E-01	 6.247E+00	-2.090E+01	-7.129E+00	 3.010E+02	 1.151E+03	-7.313E+01	 3.844E-02	-8.321E-03
   0.350	 1.200E+01	 0.000E+00	 0.000E+00	 0.000E+00	 0.000E+00	 7.300E+00	-4.886E-01	-4.935E-01	 0.000E+00	 0.000E+00	 0.000E+00	 2.759E+02	 1.717E+03	 6.475E+00	 1.740E+01	-2.708E+02	-9.728E+01	 6.583E+01	 6.099E-02	-1.022E-02	 7.233E+02	-8.653E+02	-6.096E+01	 1.798E+03	 8.361E+00	 1.496E+03	 3.673E-01	 1.657E+03	 2.270E+02	 7.736E+02	 2.045E+01	 2.056E+00	-4.886E-01	 6.246E+00	-4.658E+00	-3.780E+01	 1.195E+03	 2.450E+03	-6.094E+01	 6.099E-02	-1.022E-02
   0.400	 1.200E+01	 0.000E+00	 0.000E+00	 0.000E+00	 0.000E+00	 7.300E+00	-5.295E-01	-4.445E-01	 0.000E+00	 0.000E+00	 0.000E+00	 1.311E+02	 1.681E+03	 8.846E+00	 1.207E+01	-2.658E+02	-1.202E+02	 8.044E+01	 8.819E-02	-1.250E-02	 7.894E+02	-8.702E+02	-3.384E+01	 1.806E+03	 8.377E+00	 1.505E+03	 3.694E-01	 1.784E+03	 2.233E+02	 8.300E+02	 2.053E+01	 2.088E+00	-5.295E-01	 6.270E+00	 4.734E+01	-2.790E+01	 9.815E+02	 4.919E+03	-3.382E+01	 8.819E-02	-1.250E-02
   0.450	 1.200E+01	 0.000E+00	 0.000E+00	 0.000E+00	 0.000E+00	 7.300E+00	-5.248E-01	-3.628E-01	 0.000E+00	 0.000E+00	 0.000E+00	-2.095E+01	 1.630E+03	 1.175E+01	-1.807E-02	-2.637E+02	-1.670E+02	 8.173E+01	 1.196E-01	-1.525E-02	 8.143E+02	-9.083E+02	 9.418E+00	 1.815E+03	 8.377E+00	 1.513E+03	 3.714E-01	 1.771E+03	 2.178E+02	 8.194E+02	 2.063E+01	 2.059E+00	-5.248E-01	 6.302E+00	 1.088E+02	 1.421E+01	-9.038E+01	 7.811E+03	 9.448E+00	 1.196E-01	-1.525E-02
   0.500	 1.200E+01	 0.000E+00	 0.000E+00	 0.000E+00	 0.000E+00	 7.300E+00	-4.959E-01	-2.856E-01	 0.000E+00	 0.000E+00	 0.000E+00	-1.303E+02	 1.558E+03	 1.341E+01	-1.098E+01	-2.621E+02	-2.071E+02	 8.711E+01	 1.547E-01	-1.831E-02	 8.125E+02	-9.273E+02	 5.531E+01	 1.822E+03	 8.377E+00	 1.518E+03	 3.727E-01	 1.698E+03	 2.128E+02	 7.831E+02	 2.071E+01	 1.991E+00	-4.959E-01	 6.325E+00	 1.517E+02	 5.193E+01	-1.019E+03	 1.032E+04	 5.534E+01	 1.547E-01	-1.831E-02
   0.550	 1.200E+01	 0.000E+00	 0.000E+00	 0.000E+00	 0.000E+00	 7.300E+00	-4.723E-01	-2.484E-01	 0.000E+00	 0.000E+00	 0.000E+00	-1.626E+02	 1.473E+03	 1.297E+01	-1.367E+01	-2.602E+02	-2.101E+02	 1.053E+02	 1.926E-01	-2.148E-02	 8.104E+02	-8.891E+02	 8.339E+01	 1.826E+03	 8.377E+00	 1.521E+03	 3.735E-01	 1.679E+03	 2.115E+02	 7.727E+02	 2.075E+01	 1.905E+00	-4.723E-01	 6.339E+00	 1.663E+02	 5.320E+01	-9.355E+02	 1.211E+04	 8.341E+01	 1.926E-01	-2.148E-02
   0.600	 1.200E+01	 0.000E+00	 0.000E+00	 0.000E+00	 0.000E+00	 7.300E+00	-4.644E-01	-2.555E-01	 0.000E+00	 0.000E+00	 0.000E+00	-1.271E+02	 1.394E+03	 1.114E+01	-7.151E+00	-2.584E+02	-1.725E+02	 1.263E+02	 2.321E-01	-2.474E-02	 8.047E+02	-8.000E+02	 8.078E+01	 1.830E+03	 8.377E+00	 1.525E+03	 3.744E-01	 1.714E+03	 2.155E+02	 7.866E+02	 2.080E+01	 1.825E+00	-4.644E-01	 6.354E+00	 1.652E+02	 1.757E+01	 1.739E+02	 1.352E+04	 8.080E+01	 2.321E-01	-2.474E-02
   0.650	 1.200E+01	 0.000E+00	 0.000E+00	 0.000E+00	 0.000E+00	 7.300E+00	-4.634E-01	-2.835E-01	 0.000E+00	 0.000E+00	 0.000E+00	-6.489E+01	 1.342E+03	 9.267E+00	 3.323E+00	-2.576E+02	-1.185E+02	 1.337E+02	 2.723E-01	-2.819E-02	 7.780E+02	-7.003E+02	 5.286E+01	 1.835E+03	 8.377E+00	 1.529E+03	 3.755E-01	 1.719E+03	 2.232E+02	 7.867E+02	 2.086E+01	 1.775E+00	-4.634E-01	 6.373E+00	 1.711E+02	-2.603E+01	 1.517E+03	 1.512E+04	 5.287E+01	 2.723E-01	-2.819E-02
   0.700	 1.200E+01	 0.000E+00	 0.000E+00	 0.000E+00	 0.000E+00	 7.300E+00	-4.608E-01	-3.058E-01	 0.000E+00	 0.000E+00	 0.000E+00	-1.756E+01	 1.327E+03	 8.221E+00	 1.097E+01	-2.578E+02	-7.957E+01	 1.237E+02	 3.121E-01	-3.185E-02	 7.382E+02	-6.313E+02	 2.054E+01	 1.839E+03	 8.377E+00	 1.533E+03	 3.763E-01	 1.660E+03	 2.313E+02	 7.581E+02	 2.091E+01	 1.762E+00	-4.608E-01	 6.385E+00	 1.989E+02	-4.573E+01	 2.212E+03	 1.732E+04	 2.055E+01	 3.121E-01	-3.185E-02
   0.750	 1.200E+01	 0.000E+00	 0.000E+00	 0.000E+00	 0.000E+00	 7.300E+00	-4.607E-01	-3.116E-01	 0.000E+00	 0.000E+00	 0.000E+00	-6.962E+00	 1.340E+03	 8.047E+00	 1.231E+01	-2.582E+02	-7.369E+01	 1.085E+02	 3.510E-01	-3.551E-02	 7.215E+02	-6.069E+02	 4.960E+00	 1.840E+03	 8.377E+00	 1.533E+03	 3.764E-01	 1.599E+03	 2.378E+02	 7.303E+02	 2.091E+01	 1.779E+00	-4.607E-01	 6.388E+00	 2.459E+02	-3.213E+01	 1.977E+03	 2.002E+04	 4.991E+00	 3.510E-01	-3.551E-02
   0.800	 1.200E+01	 0.000E+00	 0.000E+00	 0.000E+00	 0.000E+00	 7.300E+00	-4.724E-01	-3.022E-01	 0.000E+00	 0.000E+00	 0.000E+00	-3.920E+01	 1.363E+03	 8.473E+00	 8.388E+00	-2.576E+02	-9.643E+01	 1.022E+02	 3.886E-01	-3.881E-02	 7.517E+02	-6.100E+02	 1.250E+01	 1.839E+03	 8.377E+00	 1.533E+03	 3.762E-01	 1.617E+03	 2.437E+02	 7.384E+02	 2.091E+01	 1.809E+00	-4.724E-01	 6.386E+00	 2.950E+02	-1.908E+00	 1.250E+03	 2.274E+04	 1.256E+01	 3.886E-01	-3.881E-02
   0.850	 1.200E+01	 0.000E+00	 0.000E+00	 0.000E+00	 0.000E+00	 7.300E+00	-4.948E-01	-2.785E-01	 0.000E+00	 0.000E+00	 0.000E+00	-1.148E+02	 1.379E+03	 9.454E+00	 2.662E+00	-2.558E+02	-1.268E+02	 1.064E+02	 4.245E-01	-4.141E-02	 8.076E+02	-6.094E+02	 3.276E+01	 1.841E+03	 8.377E+00	 1.534E+03	 3.767E-01	 1.705E+03	 2.510E+02	 7.777E+02	 2.093E+01	 1.845E+00	-4.948E-01	 6.393E+00	 3.289E+02	 1.900E+01	 7.429E+02	 2.498E+04	 3.284E+01	 4.245E-01	-4.141E-02
   0.900	 1.200E+01	 0.000E+00	 0.000E+00	 0.000E+00	 0.000E+00	 7.300E+00	-5.140E-01	-2.372E-01	 0.000E+00	 0.000E+00	 0.000E+00	-2.280E+02	 1.385E+03	 1.111E+01	-1.937E+00	-2.537E+02	-1.421E+02	 1.113E+02	 4.581E-01	-4.324E-02	 8.399E+02	-5.836E+02	 4.941E+01	 1.847E+03	 8.377E+00	 1.539E+03	 3.779E-01	 1.777E+03	 2.605E+02	 8.080E+02	 2.100E+01	 1.884E+00	-5.140E-01	 6.414E+00	 3.419E+02	 1.603E+01	 8.741E+02	 2.654E+04	 4.949E+01	 4.581E-01	-4.325E-02
   0.950	 1.200E+01	 0.000E+00	 0.000E+00	 0.000E+00	 0.000E+00	 7.300E+00	-5.158E-01	-1.806E-01	 0.000E+00	 0.000E+00	 0.000E+00	-3.576E+02	 1.386E+03	 1.322E+01	-4.350E+00	-2.531E+02	-1.320E+02	 1.076E+02	 4.890E-01	-4.450E-02	 8.211E+02	-5.340E+02	 5.305E+01	 1.854E+03	 8.377E+00	 1.545E+03	 3.794E-01	 1.762E+03	 2.713E+02	 7.982E+02	 2.108E+01	 1.927E+00	-5.158E-01	 6.438E+00	 3.430E+02	-5.756E+00	 1.522E+03	 2.766E+04	 5.314E+01	 4.890E-01	-4.450E-02
   1.000	 1.200E+01	 0.000E+00	 0.000E+00	 0.000E+00	 0.000E+00	 7.300E+00	-4.987E-01	-1.239E-01	 0.000E+00	 0.000E+00	 0.000E+00	-4.672E+02	 1.389E+03	 1.507E+01	-5.014E+00	-2.548E+02	-1.026E+02	 9.588E+01	 5.166E-01	-4.550E-02	 7.727E+02	-4.798E+02	 4.565E+01	 1.859E+03	 8.377E+00	 1.549E+03	 3.803E-01	 1.682E+03	 2.808E+02	 7.602E+02	 2.113E+01	 1.966E+00	-4.987E-01	 6.453E+00	 3.474E+02	-2.871E+01	 2.205E+03	 2.874E+04	 4.573E+01	 5.166E-01	-4.551E-02
   1.050	 1.200E+01	 0.000E+00	 0.000E+00	 0.000E+00	 0.000E+00	-1.537E-01	-2.512E-01	 1.069E-01	 0.000E+00	 0.000E+00	 0.000E+00	-3.714E+02	 1.427E+03	 1.572E+01	-5.606E+00	-2.584E+02	-4.908E+01	 1.737E+02	 5.405E-01	-4.640E-02	 6.641E+02	-4.191E+02	 1.350E+02	 1.839E+03	 8.377E+00	 1.533E+03	 3.763E-01	 1.407E+03	 2.913E+02	 6.432E+02	 2.089E+01	 2.089E+00	-2.512E-01	 6.380E+00	 3.646E+02	-3.928E+01	 2.563E+03	 3.005E+04	 1.351E+02	 5.405E-01	-4.640E-02
   1.100	 1.200E+01	 0.000E+00	 0.000E+00	 0.000E+00	 0.000E+00	 1.217E-01	-3.337E-01	 4.988E-03	 0.000E+00	 0.000E+00	 0.000E+00	-2.778E+02	 1.502E+03	 1.222E+01	-8.038E-01	-2.606E+02	-2.358E+01	 1.424E+02	 5.606E-01	-4.725E-02	 8.534E+02	-3.934E+02	 7.007E+01	 1.838E+03	 8.377E+00	 1.532E+03	 3.761E-01	 1.859E+03	 2.934E+02	 8.494E+02	 2.090E+01	 2.289E+00	-3.337E-01	 6.385E+00	 3.902E+02	-4.050E+01	 2.565E+03	 3.145E+04	 7.014E+01	 5.607E-01	-4.725E-02
   1.150	 1.200E+01	 0.000E+00	 0.000E+00	 0.000E+00	 0.000E+00	 3.583E-01	-3.754E-01	-7.559E-02	 0.000E+00	 0.000E+00	 0.000E+00	-1.922E+02	 1.737E+03	 1.160E+01	 1.150E-01	-2.627E+02	-1.956E+01	 1.353E+02	 5.768E-01	-4.815E-02	 9.886E+02	-3.822E+02	 5.006E+01	 1.860E+03	 8.377E+00	 1.550E+03	 3.806E-01	 2.165E+03	 3.227E+02	 9.776E+02	 2.115E+01	 2.508E+00	-3.754E-01	 6.459E+00	 4.157E+02	-1.493E+01	 1.848E+03	 3.270E+04	 5.013E+01	 5.768E-01	-4.815E-02
   1.200	 1.200E+01	 0.000E+00	 0.000E+00	 0.000E+00	 0.000E+00	 8.915E-01	-3.533E-01	-9.868E-02	 0.000E+00	 0.000E+00	 0.000E+00	-1.919E+02	 2.044E+03	 1.509E+01	-3.730E+00	-2.619E+02	-3.431E+01	 1.438E+02	 5.900E-01	-4.883E-02	 9.164E+02	-3.672E+02	 8.215E+01	 1.881E+03	 8.377E+00	 1.567E+03	 3.848E-01	 1.960E+03	 3.691E+02	 8.757E+02	 2.138E+01	 2.690E+00	-3.533E-01	 6.529E+00	 4.250E+02	 2.081E+01	 9.103E+02	 3.338E+04	 8.223E+01	 5.900E-01	-4.883E-02
   1.250	 1.200E+01	 0.000E+00	 0.000E+00	 0.000E+00	 0.000E+00	 1.400E+00	-3.089E-01	-9.546E-02	 0.000E+00	 0.000E+00	 0.000E+00	-2.220E+02	 2.239E+03	 1.830E+01	-6.037E+00	-2.558E+02	-4.784E+01	 1.499E+02	 6.016E-01	-4.886E-02	 7.651E+02	-3.289E+02	 1.113E+02	 1.886E+03	 8.377E+00	 1.571E+03	 3.858E-01	 1.588E+03	 3.988E+02	 7.076E+02	 2.143E+01	 2.856E+00	-3.089E-01	 6.546E+00	 4.113E+02	 3.043E+01	 6.934E+02	 3.338E+04	 1.114E+02	 6.016E-01	-4.886E-02
   1.300	 1.200E+01	 0.000E+00	 0.000E+00	 0.000E+00	 0.000E+00	 1.821E+00	-3.032E-01	-1.190E-01	 0.000E+00	 0.000E+00	 0.000E+00	-2.198E+02	 2.272E+03	 1.939E+01	-2.360E+00	-2.483E+02	-4.073E+01	 1.411E+02	 6.124E-01	-4.801E-02	 7.098E+02	-2.712E+02	 9.218E+01	 1.880E+03	 8.377E+00	 1.567E+03	 3.846E-01	 1.504E+03	 4.046E+02	 6.718E+02	 2.137E+01	 3.005E+00	-3.032E-01	 6.528E+00	 3.889E+02	-2.014E-01	 1.522E+03	 3.314E+04	 9.232E+01	 6.124E-01	-4.802E-02
   1.350	 1.200E+01	 0.000E+00	 0.000E+00	 0.000E+00	 0.000E+00	 1.992E+00	-3.305E-01	-1.610E-01	 0.000E+00	 0.000E+00	 0.000E+00	-1.865E+02	 2.196E+03	 1.644E+01	 3.869E+00	-2.446E+02	-2.488E+00	 1.209E+02	 6.219E-01	-4.655E-02	 7.787E+02	-2.145E+02	 3.975E+01	 1.879E+03	 8.377E+00	 1.566E+03	 3.844E-01	 1.744E+03	 3.872E+02	 7.794E+02	 2.136E+01	 3.089E+00	-3.305E-01	 6.524E+00	 3.814E+02	-4.488E+01	 2.674E+03	 3.326E+04	 3.991E+01	 6.220E-01	-4.655E-02
   1.400	 1.200E+01	 0.000E+00	 0.000E+00	 0.000E+00	 0.000E+00	 2.258E+00	-3.622E-01	-1.942E-01	 0.000E+00	 0.000E+00	 0.000E+00	-1.886E+02	 2.135E+03	 1.483E+01	 6.082E+00	-2.490E+02	 3.262E+01	 9.893E+01	 6.293E-01	-4.493E-02	 8.483E+02	-2.032E+02	 1.691E+00	 1.888E+03	 8.377E+00	 1.573E+03	 3.863E-01	 1.951E+03	 3.734E+02	 8.681E+02	 2.146E+01	 3.069E+00	-3.622E-01	 6.556E+00	 4.007E+02	-6.087E+01	 3.030E+03	 3.405E+04	 1.863E+00	 6.293E-01	-4.493E-02
   1.450	 1.200E+01	 0.000E+00	 0.000E+00	 0.000E+00	 0.000E+00	 2.436E+00	-3.518E-01	-1.809E-01	 0.000E+00	 0.000E+00	 0.000E+00	-2.318E+02	 2.114E+03	 1.646E+01	 1.976E+00	-2.585E+02	 3.650E+01	 8.412E+01	 6.339E-01	-4.342E-02	 8.619E+02	-2.456E+02	 1.562E+00	 1.902E+03	 8.377E+00	 1.585E+03	 3.891E-01	 1.961E+03	 3.701E+02	 8.662E+02	 2.162E+01	 2.962E+00	-3.518E-01	 6.603E+00	 4.349E+02	-3.284E+01	 2.194E+03	 3.516E+04	 1.743E+00	 6.340E-01	-4.343E-02
   1.500	 1.200E+01	 0.000E+00	 0.000E+00	 0.000E+00	 0.000E+00	 2.545E+00	-3.087E-01	-1.416E-01	 0.000E+00	 0.000E+00	 0.000E+00	-2.780E+02	 2.077E+03	 1.872E+01	-4.371E+00	-2.662E+02	 1.050E+01	 8.285E+01	 6.360E-01	-4.189E-02	 8.399E+02	-3.081E+02	 2.791E+01	 1.912E+03	 8.377E+00	 1.594E+03	 3.912E-01	 1.849E+03	 3.679E+02	 8.121E+02	 2.174E+01	 2.831E+00	-3.087E-01	 6.639E+00	 4.594E+02	 1.474E+01	 8.313E+02	 3.592E+04	 2.810E+01	 6.360E-01	-4.189E-02
   1.550	 1.200E+01	 0.000E+00	 0.000E+00	 0.000E+00	 0.000E+00	 2.580E+00	-2.649E-01	-1.184E-01	 0.000E+00	 0.000E+00	 0.000E+00	-2.772E+02	 2.003E+03	 1.871E+01	-6.692E+00	-2.674E+02	-1.701E+01	 9.470E+01	 6.354E-01	-3.998E-02	 8.325E+02	-3.418E+02	 5.060E+01	 1.918E+03	 8.377E+00	 1.599E+03	 3.925E-01	 1.800E+03	 3.602E+02	 7.880E+02	 2.181E+01	 2.728E+00	-2.649E-01	 6.661E+00	 4.585E+02	 4.142E+01	 2.627E+01	 3.587E+04	 5.079E+01	 6.355E-01	-3.998E-02
   1.600	 1.200E+01	 0.000E+00	 0.000E+00	 0.000E+00	 0.000E+00	 2.622E+00	-2.420E-01	-1.361E-01	 0.000E+00	 0.000E+00	 0.000E+00	-2.201E+02	 1.933E+03	 1.645E+01	-2.725E+00	-2.630E+02	-1.865E+01	 1.124E+02	 6.320E-01	-3.747E-02	 8.412E+02	-3.244E+02	 5.257E+01	 1.925E+03	 8.377E+00	 1.604E+03	 3.937E-01	 1.855E+03	 3.521E+02	 8.097E+02	 2.188E+01	 2.667E+00	-2.420E-01	 6.683E+00	 4.361E+02	 2.772E+01	 3.089E+02	 3.510E+04	 5.276E+01	 6.320E-01	-3.748E-02
   1.650	 1.200E+01	 0.000E+00	 0.000E+00	 0.000E+00	 0.000E+00	 2.639E+00	-2.282E-01	-1.785E-01	 0.000E+00	 0.000E+00	 0.000E+00	-1.313E+02	 1.920E+03	 1.386E+01	 4.079E+00	-2.572E+02	 7.670E+00	 1.225E+02	 6.253E-01	-3.450E-02	 8.368E+02	-2.751E+02	 3.618E+01	 1.934E+03	 8.377E+00	 1.611E+03	 3.956E-01	 1.923E+03	 3.493E+02	 8.353E+02	 2.198E+01	 2.631E+00	-2.282E-01	 6.714E+00	 4.096E+02	-1.057E+01	 1.257E+03	 3.409E+04	 3.637E+01	 6.253E-01	-3.451E-02
   1.700	 1.200E+01	 0.000E+00	 0.000E+00	 0.000E+00	 0.000E+00	 2.642E+00	-2.068E-01	-2.190E-01	 0.000E+00	 0.000E+00	 0.000E+00	-4.436E+01	 1.965E+03	 1.235E+01	 8.037E+00	-2.535E+02	 3.935E+01	 1.130E+02	 6.152E-01	-3.141E-02	 8.003E+02	-2.362E+02	 1.335E+01	 1.943E+03	 8.377E+00	 1.619E+03	 3.976E-01	 1.899E+03	 3.511E+02	 8.210E+02	 2.209E+01	 2.604E+00	-2.068E-01	 6.747E+00	 3.945E+02	-3.906E+01	 1.941E+03	 3.326E+04	 1.354E+01	 6.152E-01	-3.141E-02
   1.750	 1.200E+01	 0.000E+00	 0.000E+00	 0.000E+00	 0.000E+00	 2.639E+00	-1.776E-01	-2.469E-01	 0.000E+00	 0.000E+00	 0.000E+00	 2.870E+01	 2.027E+03	 1.198E+01	 6.220E+00	-2.533E+02	 5.462E+01	 8.519E+01	 6.020E-01	-2.849E-02	 7.593E+02	-2.350E+02	-4.992E+00	 1.950E+03	 8.377E+00	 1.625E+03	 3.989E-01	 1.810E+03	 3.536E+02	 7.800E+02	 2.216E+01	 2.587E+00	-1.776E-01	 6.769E+00	 3.935E+02	-3.511E+01	 1.737E+03	 3.272E+04	-4.812E+00	 6.020E-01	-2.849E-02
   1.800	 1.200E+01	 0.000E+00	 0.000E+00	 0.000E+00	 0.000E+00	 2.633E+00	-1.555E-01	-2.704E-01	 0.000E+00	 0.000E+00	 0.000E+00	 9.440E+01	 2.066E+03	 1.163E+01	 5.882E-01	-2.554E+02	 5.135E+01	 5.523E+01	 5.861E-01	-2.581E-02	 7.570E+02	-2.658E+02	-1.378E+01	 1.953E+03	 8.377E+00	 1.627E+03	 3.995E-01	 1.769E+03	 3.527E+02	 7.609E+02	 2.220E+01	 2.589E+00	-1.555E-01	 6.780E+00	 3.976E+02	-4.020E+00	 7.803E+02	 3.225E+04	-1.361E+01	 5.862E-01	-2.581E-02
   1.850	 1.200E+01	 0.000E+00	 0.000E+00	 0.000E+00	 0.000E+00	 2.628E+00	-1.518E-01	-2.988E-01	 0.000E+00	 0.000E+00	 0.000E+00	 1.572E+02	 2.081E+03	 1.065E+01	-4.263E+00	-2.580E+02	 4.255E+01	 3.892E+01	 5.683E-01	-2.326E-02	 8.009E+02	-3.030E+02	-1.554E+01	 1.956E+03	 8.377E+00	 1.630E+03	 4.002E-01	 1.837E+03	 3.493E+02	 7.888E+02	 2.224E+01	 2.614E+00	-1.518E-01	 6.793E+00	 3.945E+02	 2.919E+01	-2.441E+02	 3.151E+04	-1.538E+01	 5.683E-01	-2.326E-02
   1.900	 1.200E+01	 0.000E+00	 0.000E+00	 0.000E+00	 0.000E+00	 2.620E+00	-1.591E-01	-3.273E-01	 0.000E+00	 0.000E+00	 0.000E+00	 2.083E+02	 2.092E+03	 9.527E+00	-4.825E+00	-2.601E+02	 4.177E+01	 3.789E+01	 5.488E-01	-2.073E-02	 8.479E+02	-3.245E+02	-1.841E+01	 1.964E+03	 8.377E+00	 1.637E+03	 4.018E-01	 1.950E+03	 3.466E+02	 8.338E+02	 2.233E+01	 2.649E+00	-1.591E-01	 6.820E+00	 3.780E+02	 4.156E+01	-6.923E+02	 3.033E+04	-1.828E+01	 5.488E-01	-2.073E-02
   1.950	 1.200E+01	 0.000E+00	 0.000E+00	 0.000E+00	 0.000E+00	 2.614E+00	-1.602E-01	-3.438E-01	 0.000E+00	 0.000E+00	 0.000E+00	 2.370E+02	 2.114E+03	 9.227E+00	-8.692E-01	-2.612E+02	 5.256E+01	 4.131E+01	 5.280E-01	-1.821E-02	 8.484E+02	-3.267E+02	-2.985E+01	 1.975E+03	 8.377E+00	 1.646E+03	 4.041E-01	 1.993E+03	 3.463E+02	 8.477E+02	 2.245E+01	 2.679E+00	-1.602E-01	 6.858E+00	 3.512E+02	 2.826E+01	-4.147E+02	 2.882E+04	-2.974E+01	 5.280E-01	-1.821E-02
   2.000	 1.200E+01	 0.000E+00	 0.000E+00	 0.000E+00	 0.000E+00	 2.608E+00	-1.463E-01	-3.440E-01	 0.000E+00	 0.000E+00	 0.000E+00	 2.477E+02	 2.136E+03	 9.830E+00	 4.997E+00	-2.618E+02	 6.771E+01	 3.799E+01	 5.063E-01	-1.581E-02	 7.973E+02	-3.232E+02	-5.061E+01	 1.985E+03	 8.377E+00	 1.654E+03	 4.061E-01	 1.928E+03	 3.463E+02	 8.159E+02	 2.257E+01	 2.696E+00	-1.463E-01	 6.892E+00	 3.234E+02	 2.825E+00	 2.196E+02	 2.725E+04	-5.052E+01	 5.063E-01	-1.581E-02
   2.050	 1.200E+01	 0.000E+00	 0.000E+00	 0.000E+00	 0.000E+00	 2.606E+00	-1.249E-01	-3.393E-01	 0.000E+00	 0.000E+00	 0.000E+00	 2.618E+02	 2.141E+03	 1.043E+01	 9.442E+00	-2.623E+02	 7.693E+01	 2.630E+01	 4.840E-01	-1.366E-02	 7.388E+02	-3.311E+02	-7.357E+01	 1.991E+03	 8.377E+00	 1.659E+03	 4.073E-01	 1.828E+03	 3.438E+02	 7.712E+02	 2.263E+01	 2.699E+00	-1.249E-01	 6.912E+00	 3.033E+02	-1.498E+01	 6.546E+02	 2.588E+04	-7.350E+01	 4.840E-01	-1.366E-02
   2.100	 1.200E+01	 0.000E+00	 0.000E+00	 0.000E+00	 0.000E+00	 2.603E+00	-1.109E-01	-3.456E-01	 0.000E+00	 0.000E+00	 0.000E+00	 3.011E+02	 2.123E+03	 9.968E+00	 1.037E+01	-2.630E+02	 7.414E+01	 1.326E+01	 4.615E-01	-1.183E-02	 7.218E+02	-3.584E+02	-8.822E+01	 1.993E+03	 8.377E+00	 1.661E+03	 4.078E-01	 1.794E+03	 3.378E+02	 7.560E+02	 2.266E+01	 2.696E+00	-1.109E-01	 6.921E+00	 2.936E+02	-1.305E+01	 5.418E+02	 2.480E+04	-8.815E+01	 4.615E-01	-1.183E-02
   2.150	 1.200E+01	 0.000E+00	 0.000E+00	 0.000E+00	 0.000E+00	 2.601E+00	-1.116E-01	-3.700E-01	 0.000E+00	 0.000E+00	 0.000E+00	 3.699E+02	 2.092E+03	 8.311E+00	 7.835E+00	-2.640E+02	 6.043E+01	 6.067E+00	 4.392E-01	-1.031E-02	 7.555E+02	-4.002E+02	-8.866E+01	 1.996E+03	 8.377E+00	 1.663E+03	 4.084E-01	 1.856E+03	 3.301E+02	 7.809E+02	 2.269E+01	 2.688E+00	-1.116E-01	 6.931E+00	 2.893E+02	 6.221E+00	-5.660E+01	 2.388E+04	-8.860E+01	 4.392E-01	-1.031E-02
   2.200	 1.200E+01	 0.000E+00	 0.000E+00	 0.000E+00	 0.000E+00	 2.600E+00	-1.218E-01	-4.051E-01	 0.000E+00	 0.000E+00	 0.000E+00	 4.530E+02	 2.063E+03	 6.200E+00	 3.726E+00	-2.648E+02	 4.308E+01	 6.373E+00	 4.174E-01	-9.019E-03	 8.042E+02	-4.429E+02	-7.746E+01	 2.003E+03	 8.377E+00	 1.669E+03	 4.097E-01	 1.949E+03	 3.232E+02	 8.174E+02	 2.277E+01	 2.678E+00	-1.218E-01	 6.954E+00	 2.824E+02	 2.908E+01	-7.507E+02	 2.292E+04	-7.741E+01	 4.174E-01	-9.019E-03
   2.250	 1.200E+01	 0.000E+00	 0.000E+00	 0.000E+00	 0.000E+00	 2.600E+00	-1.315E-01	-4.372E-01	 0.000E+00	 0.000E+00	 0.000E+00	 5.283E+02	 2.045E+03	 4.547E+00	 5.692E-01	-2.654E+02	 3.064E+01	 1.081E+01	 3.965E-01	-7.917E-03	 8.242E+02	-4.737E+02	-6.371E+01	 2.012E+03	 8.377E+00	 1.677E+03	 4.116E-01	 1.990E+03	 3.184E+02	 8.307E+02	 2.287E+01	 2.663E+00	-1.315E-01	 6.985E+00	 2.678E+02	 4.023E+01	-1.104E+03	 2.177E+04	-6.368E+01	 3.965E-01	-7.918E-03
   2.300	 1.200E+01	 0.000E+00	 0.000E+00	 0.000E+00	 0.000E+00	 2.599E+00	-1.365E-01	-4.577E-01	 0.000E+00	 0.000E+00	 0.000E+00	 5.817E+02	 2.034E+03	 3.704E+00	 6.767E-02	-2.657E+02	 2.750E+01	 1.520E+01	 3.768E-01	-7.036E-03	 8.020E+02	-4.892E+02	-5.654E+01	 2.021E+03	 8.377E+00	 1.684E+03	 4.134E-01	 1.952E+03	 3.153E+02	 8.116E+02	 2.297E+01	 2.645E+00	-1.365E-01	 7.016E+00	 2.466E+02	 3.307E+01	-9.297E+02	 2.047E+04	-5.653E+01	 3.768E-01	-7.037E-03
   2.350	 1.200E+01	 0.000E+00	 0.000E+00	 0.000E+00	 0.000E+00	 2.601E+00	-1.403E-01	-4.666E-01	 0.000E+00	 0.000E+00	 0.000E+00	 6.115E+02	 2.024E+03	 3.454E+00	 2.117E+00	-2.662E+02	 3.131E+01	 1.732E+01	 3.585E-01	-6.491E-03	 7.598E+02	-4.966E+02	-5.924E+01	 2.027E+03	 8.377E+00	 1.689E+03	 4.146E-01	 1.882E+03	 3.122E+02	 7.802E+02	 2.304E+01	 2.626E+00	-1.403E-01	 7.037E+00	 2.252E+02	 1.395E+01	-4.046E+02	 1.923E+04	-5.925E+01	 3.585E-01	-6.491E-03
   2.400	 1.200E+01	 0.000E+00	 0.000E+00	 0.000E+00	 0.000E+00	 2.625E+00	-1.495E-01	-4.694E-01	 0.000E+00	 0.000E+00	 0.000E+00	 6.227E+02	 2.012E+03	 3.534E+00	 4.978E+00	-2.670E+02	 3.463E+01	 1.700E+01	 3.418E-01	-6.423E-03	 7.316E+02	-5.075E+02	-6.795E+01	 2.030E+03	 8.377E+00	 1.692E+03	 4.153E-01	 1.842E+03	 3.091E+02	 7.621E+02	 2.308E+01	 2.610E+00	-1.495E-01	 7.049E+00	 2.105E+02	-2.649E+00	 6.415E+01	 1.822E+04	-6.798E+01	 3.418E-01	-6.423E-03
   2.450	 1.200E+01	 0.000E+00	 0.000E+00	 0.000E+00	 0.000E+00	 2.656E+00	-1.647E-01	-4.680E-01	 0.000E+00	 0.000E+00	 0.000E+00	 6.215E+02	 1.996E+03	 3.621E+00	 6.575E+00	-2.677E+02	 3.086E+01	 1.566E+01	 3.269E-01	-6.910E-03	 7.353E+02	-5.282E+02	-7.490E+01	 2.033E+03	 8.377E+00	 1.694E+03	 4.159E-01	 1.858E+03	 3.045E+02	 7.679E+02	 2.311E+01	 2.601E+00	-1.647E-01	 7.058E+00	 2.047E+02	-4.761E+00	 1.429E+02	 1.754E+04	-7.495E+01	 3.269E-01	-6.911E-03
   2.500	 1.200E+01	 0.000E+00	 0.000E+00	 0.000E+00	 0.000E+00	 2.755E+00	-1.853E-01	-4.658E-01	 0.000E+00	 0.000E+00	 0.000E+00	 6.097E+02	 1.982E+03	 3.862E+00	 5.999E+00	-2.677E+02	 1.794E+01	 1.455E+01	 3.140E-01	-7.904E-03	 7.631E+02	-5.561E+02	-7.510E+01	 2.037E+03	 8.377E+00	 1.697E+03	 4.167E-01	 1.911E+03	 3.000E+02	 7.880E+02	 2.316E+01	 2.594E+00	-1.853E-01	 7.073E+00	 2.043E+02	 8.221E+00	-1.849E+02	 1.709E+04	-7.516E+01	 3.140E-01	-7.905E-03
   2.550	 1.200E+01	 0.000E+00	 0.000E+00	 0.000E+00	 0.000E+00	 2.903E+00	-2.064E-01	-4.619E-01	 0.000E+00	 0.000E+00	 0.000E+00	 5.902E+02	 1.975E+03	 4.384E+00	 4.074E+00	-2.667E+02	-1.595E+00	 1.523E+01	 3.035E-01	-9.249E-03	 7.893E+02	-5.837E+02	-6.845E+01	 2.043E+03	 8.377E+00	 1.702E+03	 4.179E-01	 1.952E+03	 2.976E+02	 8.024E+02	 2.322E+01	 2.585E+00	-2.064E-01	 7.093E+00	 2.034E+02	 2.539E+01	-6.158E+02	 1.670E+04	-6.851E+01	 3.035E-01	-9.249E-03
   2.600	 1.200E+01	 0.000E+00	 0.000E+00	 0.000E+00	 0.000E+00	 3.090E+00	-2.268E-01	-4.583E-01	 0.000E+00	 0.000E+00	 0.000E+00	 5.668E+02	 1.971E+03	 5.097E+00	 2.475E+00	-2.650E+02	-2.158E+01	 1.753E+01	 2.953E-01	-1.077E-02	 7.912E+02	-6.032E+02	-5.993E+01	 2.049E+03	 8.377E+00	 1.708E+03	 4.193E-01	 1.944E+03	 2.965E+02	 7.967E+02	 2.330E+01	 2.568E+00	-2.268E-01	 7.116E+00	 1.976E+02	 3.299E+01	-7.685E+02	 1.627E+04	-6.000E+01	 2.953E-01	-1.077E-02
   2.650	 1.200E+01	 0.000E+00	 0.000E+00	 0.000E+00	 0.000E+00	 3.195E+00	-2.424E-01	-4.522E-01	 0.000E+00	 0.000E+00	 0.000E+00	 5.513E+02	 1.955E+03	 5.107E+00	 2.333E+00	-2.633E+02	-2.978E+01	 1.964E+01	 2.898E-01	-1.239E-02	 7.818E+02	-6.072E+02	-5.704E+01	 2.055E+03	 8.377E+00	 1.713E+03	 4.205E-01	 1.932E+03	 2.932E+02	 7.896E+02	 2.336E+01	 2.541E+00	-2.424E-01	 7.136E+00	 1.883E+02	 2.439E+01	-4.677E+02	 1.583E+04	-5.711E+01	 2.898E-01	-1.239E-02
   2.700	 1.200E+01	 0.000E+00	 0.000E+00	 0.000E+00	 0.000E+00	 3.420E+00	-2.639E-01	-4.548E-01	 0.000E+00	 0.000E+00	 0.000E+00	 5.371E+02	 1.932E+03	 4.675E+00	 3.367E+00	-2.627E+02	-3.117E+01	 1.871E+01	 2.867E-01	-1.415E-02	 7.595E+02	-6.068E+02	-6.078E+01	 2.060E+03	 8.377E+00	 1.717E+03	 4.214E-01	 1.901E+03	 2.892E+02	 7.754E+02	 2.342E+01	 2.504E+00	-2.639E-01	 7.152E+00	 1.803E+02	 6.324E+00	 1.038E+02	 1.552E+04	-6.086E+01	 2.867E-01	-1.415E-02
   2.750	 1.200E+01	 0.000E+00	 0.000E+00	 0.000E+00	 0.000E+00	 3.650E+00	-2.862E-01	-4.592E-01	 0.000E+00	 0.000E+00	 0.000E+00	 5.263E+02	 1.912E+03	 4.908E+00	 4.438E+00	-2.641E+02	-3.284E+01	 1.582E+01	 2.860E-01	-1.615E-02	 7.466E+02	-6.126E+02	-6.708E+01	 2.063E+03	 8.377E+00	 1.719E+03	 4.221E-01	 1.889E+03	 2.882E+02	 7.690E+02	 2.346E+01	 2.459E+00	-2.862E-01	 7.164E+00	 1.791E+02	-8.212E+00	 5.839E+02	 1.548E+04	-6.717E+01	 2.860E-01	-1.615E-02
   2.800	 1.200E+01	 0.000E+00	 0.000E+00	 0.000E+00	 0.000E+00	 3.764E+00	-3.036E-01	-4.571E-01	 0.000E+00	 0.000E+00	 0.000E+00	 5.116E+02	 1.880E+03	 4.815E+00	 3.920E+00	-2.661E+02	-3.546E+01	 1.526E+01	 2.876E-01	-1.847E-02	 7.369E+02	-6.245E+02	-6.459E+01	 2.066E+03	 8.377E+00	 1.721E+03	 4.226E-01	 1.859E+03	 2.838E+02	 7.560E+02	 2.348E+01	 2.412E+00	-3.036E-01	 7.172E+00	 1.853E+02	-9.061E+00	 6.968E+02	 1.573E+04	-6.468E+01	 2.876E-01	-1.847E-02
   2.850	 1.200E+01	 0.000E+00	 0.000E+00	 0.000E+00	 0.000E+00	 3.981E+00	-3.260E-01	-4.553E-01	 0.000E+00	 0.000E+00	 0.000E+00	 4.868E+02	 1.848E+03	 4.927E+00	 2.303E+00	-2.677E+02	-4.353E+01	 1.674E+01	 2.912E-01	-2.104E-02	 7.535E+02	-6.403E+02	-5.767E+01	 2.068E+03	 8.377E+00	 1.724E+03	 4.231E-01	 1.878E+03	 2.794E+02	 7.629E+02	 2.351E+01	 2.361E+00	-3.260E-01	 7.181E+00	 1.958E+02	 1.679E+00	 4.905E+02	 1.618E+04	-5.776E+01	 2.912E-01	-2.104E-02
   2.900	 1.200E+01	 0.000E+00	 0.000E+00	 0.000E+00	 0.000E+00	 4.185E+00	-3.482E-01	-4.462E-01	 0.000E+00	 0.000E+00	 0.000E+00	 4.474E+02	 1.811E+03	 4.937E+00	 4.604E-01	-2.675E+02	-5.422E+01	 2.276E+01	 2.968E-01	-2.373E-02	 7.763E+02	-6.510E+02	-4.585E+01	 2.071E+03	 8.377E+00	 1.726E+03	 4.238E-01	 1.910E+03	 2.735E+02	 7.745E+02	 2.355E+01	 2.307E+00	-3.482E-01	 7.193E+00	 2.055E+02	 1.398E+01	 2.426E+02	 1.667E+04	-4.593E+01	 2.968E-01	-2.373E-02
   2.950	 1.200E+01	 0.000E+00	 0.000E+00	 0.000E+00	 0.000E+00	 4.383E+00	-3.698E-01	-4.288E-01	 0.000E+00	 0.000E+00	 0.000E+00	 3.889E+02	 1.788E+03	 6.368E+00	-3.687E-01	-2.661E+02	-6.871E+01	 3.221E+01	 3.039E-01	-2.636E-02	 7.806E+02	-6.549E+02	-3.312E+01	 2.075E+03	 8.377E+00	 1.729E+03	 4.246E-01	 1.909E+03	 2.736E+02	 7.725E+02	 2.359E+01	 2.250E+00	-3.698E-01	 7.206E+00	 2.113E+02	 1.730E+01	 2.462E+02	 1.710E+04	-3.320E+01	 3.039E-01	-2.636E-02
   3.000	 1.200E+01	 0.000E+00	 0.000E+00	 0.000E+00	 0.000E+00	 4.481E+00	-3.852E-01	-3.996E-01	 0.000E+00	 0.000E+00	 0.000E+00	 3.201E+02	 1.746E+03	 7.069E+00	-1.238E-01	-2.631E+02	-7.261E+01	 4.040E+01	 3.124E-01	-2.886E-02	 7.745E+02	-6.421E+02	-2.559E+01	 2.079E+03	 8.377E+00	 1.733E+03	 4.254E-01	 1.901E+03	 2.694E+02	 7.682E+02	 2.364E+01	 2.193E+00	-3.852E-01	 7.219E+00	 2.136E+02	 7.946E+00	 5.970E+02	 1.749E+04	-2.566E+01	 3.124E-01	-2.886E-02
   3.050	 1.200E+01	 0.000E+00	 0.000E+00	 0.000E+00	 0.000E+00	 4.678E+00	-4.006E-01	-3.696E-01	 0.000E+00	 0.000E+00	 0.000E+00	 2.432E+02	 1.705E+03	 8.072E+00	 6.173E-01	-2.605E+02	-7.181E+01	 4.360E+01	 3.219E-01	-3.122E-02	 7.583E+02	-6.245E+02	-2.442E+01	 2.082E+03	 8.377E+00	 1.735E+03	 4.259E-01	 1.877E+03	 2.669E+02	 7.575E+02	 2.367E+01	 2.140E+00	-4.006E-01	 7.228E+00	 2.162E+02	-7.404E+00	 1.112E+03	 1.791E+04	-2.448E+01	 3.219E-01	-3.122E-02
   3.100	 1.200E+01	 0.000E+00	 0.000E+00	 0.000E+00	 0.000E+00	 4.877E+00	-4.132E-01	-3.400E-01	 0.000E+00	 0.000E+00	 0.000E+00	 1.681E+02	 1.661E+03	 8.735E+00	 5.515E-01	-2.591E+02	-6.792E+01	 4.214E+01	 3.320E-01	-3.354E-02	 7.376E+02	-6.093E+02	-2.436E+01	 2.083E+03	 8.377E+00	 1.736E+03	 4.262E-01	 1.833E+03	 2.641E+02	 7.392E+02	 2.368E+01	 2.095E+00	-4.132E-01	 7.232E+00	 2.224E+02	-1.798E+01	 1.494E+03	 1.845E+04	-2.442E+01	 3.320E-01	-3.354E-02
   3.150	 1.200E+01	 0.000E+00	 0.000E+00	 0.000E+00	 0.000E+00	 5.070E+00	-4.247E-01	-3.155E-01	 0.000E+00	 0.000E+00	 0.000E+00	 1.045E+02	 1.633E+03	 9.991E+00	-5.117E-01	-2.596E+02	-6.779E+01	 3.901E+01	 3.425E-01	-3.584E-02	 7.337E+02	-6.041E+02	-2.317E+01	 2.083E+03	 8.377E+00	 1.736E+03	 4.261E-01	 1.815E+03	 2.658E+02	 7.318E+02	 2.368E+01	 2.057E+00	-4.247E-01	 7.232E+00	 2.331E+02	-1.768E+01	 1.570E+03	 1.913E+04	-2.322E+01	 3.425E-01	-3.584E-02
   3.200	 1.200E+01	 0.000E+00	 0.000E+00	 0.000E+00	 0.000E+00	 5.164E+00	-4.333E-01	-2.945E-01	 0.000E+00	 0.000E+00	 0.000E+00	 5.781E+01	 1.592E+03	 9.899E+00	-2.308E+00	-2.602E+02	-6.513E+01	 3.661E+01	 3.529E-01	-3.810E-02	 7.526E+02	-6.003E+02	-2.008E+01	 2.083E+03	 8.377E+00	 1.736E+03	 4.262E-01	 1.842E+03	 2.620E+02	 7.427E+02	 2.368E+01	 2.026E+00	-4.333E-01	 7.233E+00	 2.457E+02	-8.802E+00	 1.401E+03	 1.986E+04	-2.012E+01	 3.529E-01	-3.810E-02
   3.250	 1.200E+01	 0.000E+00	 0.000E+00	 0.000E+00	 0.000E+00	 5.346E+00	-4.454E-01	-2.819E-01	 0.000E+00	 0.000E+00	 0.000E+00	 1.589E+01	 1.556E+03	 9.812E+00	-3.611E+00	-2.608E+02	-6.474E+01	 3.625E+01	 3.631E-01	-4.020E-02	 7.727E+02	-5.973E+02	-1.663E+01	 2.084E+03	 8.377E+00	 1.737E+03	 4.264E-01	 1.874E+03	 2.594E+02	 7.551E+02	 2.369E+01	 1.998E+00	-4.454E-01	 7.237E+00	 2.566E+02	 6.032E-01	 1.210E+03	 2.054E+04	-1.667E+01	 3.631E-01	-4.020E-02
   3.300	 1.200E+01	 0.000E+00	 0.000E+00	 0.000E+00	 0.000E+00	 5.523E+00	-4.555E-01	-2.693E-01	 0.000E+00	 0.000E+00	 0.000E+00	-2.688E+01	 1.528E+03	 1.006E+01	-3.572E+00	-2.607E+02	-6.366E+01	 3.742E+01	 3.728E-01	-4.201E-02	 7.812E+02	-5.890E+02	-1.579E+01	 2.086E+03	 8.377E+00	 1.739E+03	 4.268E-01	 1.890E+03	 2.595E+02	 7.608E+02	 2.372E+01	 1.972E+00	-4.555E-01	 7.244E+00	 2.636E+02	 2.410E+00	 1.223E+03	 2.108E+04	-1.582E+01	 3.728E-01	-4.201E-02
   3.350	 1.200E+01	 0.000E+00	 0.000E+00	 0.000E+00	 0.000E+00	 5.702E+00	-4.622E-01	-2.533E-01	 0.000E+00	 0.000E+00	 0.000E+00	-7.738E+01	 1.502E+03	 1.067E+01	-2.342E+00	-2.598E+02	-6.073E+01	 3.824E+01	 3.818E-01	-4.347E-02	 7.656E+02	-5.751E+02	-1.796E+01	 2.088E+03	 8.377E+00	 1.740E+03	 4.272E-01	 1.859E+03	 2.607E+02	 7.478E+02	 2.374E+01	 1.948E+00	-4.622E-01	 7.250E+00	 2.670E+02	-5.005E+00	 1.484E+03	 2.149E+04	-1.798E+01	 3.818E-01	-4.347E-02
   3.400	 1.200E+01	 0.000E+00	 0.000E+00	 0.000E+00	 0.000E+00	 5.793E+00	-4.623E-01	-2.301E-01	 0.000E+00	 0.000E+00	 0.000E+00	-1.299E+02	 1.466E+03	 1.087E+01	-8.457E-01	-2.584E+02	-5.262E+01	 3.659E+01	 3.896E-01	-4.456E-02	 7.481E+02	-5.561E+02	-2.388E+01	 2.089E+03	 8.377E+00	 1.741E+03	 4.274E-01	 1.831E+03	 2.585E+02	 7.363E+02	 2.375E+01	 1.928E+00	-4.623E-01	 7.253E+00	 2.690E+02	-1.682E+01	 1.854E+03	 2.182E+04	-2.389E+01	 3.897E-01	-4.456E-02
   3.450	 1.200E+01	 0.000E+00	 0.000E+00	 0.000E+00	 0.000E+00	 5.975E+00	-4.633E-01	-2.078E-01	 0.000E+00	 0.000E+00	 0.000E+00	-1.860E+02	 1.431E+03	 1.096E+01	-1.888E-01	-2.574E+02	-4.437E+01	 3.134E+01	 3.963E-01	-4.532E-02	 7.371E+02	-5.406E+02	-3.095E+01	 2.088E+03	 8.377E+00	 1.740E+03	 4.273E-01	 1.813E+03	 2.557E+02	 7.294E+02	 2.374E+01	 1.908E+00	-4.633E-01	 7.251E+00	 2.722E+02	-2.457E+01	 2.096E+03	 2.214E+04	-3.095E+01	 3.963E-01	-4.532E-02
   3.500	 1.200E+01	 0.000E+00	 0.000E+00	 0.000E+00	 0.000E+00	 6.153E+00	-4.628E-01	-1.860E-01	 0.000E+00	 0.000E+00	 0.000E+00	-2.400E+02	 1.409E+03	 1.172E+01	-9.220E-01	-2.575E+02	-3.949E+01	 2.466E+01	 4.015E-01	-4.579E-02	 7.416E+02	-5.332E+02	-3.549E+01	 2.087E+03	 8.377E+00	 1.739E+03	 4.270E-01	 1.821E+03	 2.565E+02	 7.329E+02	 2.373E+01	 1.887E+00	-4.628E-01	 7.248E+00	 2.776E+02	-2.322E+01	 2.072E+03	 2.247E+04	-3.548E+01	 4.015E-01	-4.579E-02
   3.550	 1.200E+01	 0.000E+00	 0.000E+00	 0.000E+00	 0.000E+00	 6.240E+00	-4.575E-01	-1.636E-01	 0.000E+00	 0.000E+00	 0.000E+00	-2.893E+02	 1.381E+03	 1.196E+01	-2.952E+00	-2.579E+02	-3.539E+01	 2.006E+01	 4.050E-01	-4.597E-02	 7.462E+02	-5.310E+02	-3.295E+01	 2.087E+03	 8.377E+00	 1.739E+03	 4.269E-01	 1.817E+03	 2.542E+02	 7.312E+02	 2.372E+01	 1.864E+00	-4.575E-01	 7.246E+00	 2.834E+02	-1.408E+01	 1.822E+03	 2.275E+04	-3.293E+01	 4.051E-01	-4.597E-02
   3.600	 1.200E+01	 0.000E+00	 0.000E+00	 0.000E+00	 0.000E+00	 6.410E+00	-4.518E-01	-1.469E-01	 0.000E+00	 0.000E+00	 0.000E+00	-3.292E+02	 1.352E+03	 1.203E+01	-4.682E+00	-2.584E+02	-3.129E+01	 1.600E+01	 4.069E-01	-4.583E-02	 7.650E+02	-5.301E+02	-3.227E+01	 2.087E+03	 8.377E+00	 1.739E+03	 4.270E-01	 1.851E+03	 2.513E+02	 7.451E+02	 2.373E+01	 1.837E+00	-4.518E-01	 7.247E+00	 2.871E+02	-4.930E+00	 1.555E+03	 2.291E+04	-3.224E+01	 4.069E-01	-4.583E-02
   3.650	 1.200E+01	 0.000E+00	 0.000E+00	 0.000E+00	 0.000E+00	 6.577E+00	-4.415E-01	-1.329E-01	 0.000E+00	 0.000E+00	 0.000E+00	-3.622E+02	 1.323E+03	 1.188E+01	-5.310E+00	-2.586E+02	-2.547E+01	 1.345E+01	 4.070E-01	-4.533E-02	 7.684E+02	-5.268E+02	-3.292E+01	 2.088E+03	 8.377E+00	 1.740E+03	 4.272E-01	 1.857E+03	 2.481E+02	 7.472E+02	 2.374E+01	 1.809E+00	-4.415E-01	 7.250E+00	 2.870E+02	-1.787E+00	 1.447E+03	 2.289E+04	-3.289E+01	 4.070E-01	-4.533E-02
   3.700	 1.200E+01	 0.000E+00	 0.000E+00	 0.000E+00	 0.000E+00	 6.746E+00	-4.267E-01	-1.223E-01	 0.000E+00	 0.000E+00	 0.000E+00	-3.881E+02	 1.309E+03	 1.254E+01	-4.415E+00	-2.590E+02	-1.969E+01	 1.088E+01	 4.053E-01	-4.449E-02	 7.541E+02	-5.222E+02	-3.773E+01	 2.089E+03	 8.377E+00	 1.741E+03	 4.273E-01	 1.832E+03	 2.500E+02	 7.367E+02	 2.374E+01	 1.779E+00	-4.267E-01	 7.252E+00	 2.837E+02	-6.303E+00	 1.543E+03	 2.272E+04	-3.770E+01	 4.053E-01	-4.449E-02
   3.750	 1.200E+01	 0.000E+00	 0.000E+00	 0.000E+00	 0.000E+00	 6.832E+00	-4.061E-01	-1.132E-01	 0.000E+00	 0.000E+00	 0.000E+00	-3.990E+02	 1.283E+03	 1.212E+01	-2.749E+00	-2.585E+02	-8.639E+00	 8.307E+00	 4.016E-01	-4.334E-02	 7.397E+02	-5.134E+02	-4.552E+01	 2.088E+03	 8.377E+00	 1.740E+03	 4.273E-01	 1.813E+03	 2.456E+02	 7.292E+02	 2.374E+01	 1.748E+00	-4.061E-01	 7.252E+00	 2.784E+02	-1.455E+01	 1.732E+03	 2.243E+04	-4.548E+01	 4.016E-01	-4.334E-02
   3.800	 1.200E+01	 0.000E+00	 0.000E+00	 0.000E+00	 0.000E+00	 7.005E+00	-3.870E-01	-1.113E-01	 0.000E+00	 0.000E+00	 0.000E+00	-4.006E+02	 1.262E+03	 1.179E+01	-1.282E+00	-2.581E+02	 1.467E+00	 3.091E+00	 3.960E-01	-4.196E-02	 7.308E+02	-5.077E+02	-5.554E+01	 2.087E+03	 8.377E+00	 1.740E+03	 4.271E-01	 1.804E+03	 2.419E+02	 7.260E+02	 2.373E+01	 1.714E+00	-3.870E-01	 7.248E+00	 2.732E+02	-1.956E+01	 1.821E+03	 2.206E+04	-5.550E+01	 3.960E-01	-4.196E-02
   3.850	 1.200E+01	 0.000E+00	 0.000E+00	 0.000E+00	 0.000E+00	 7.175E+00	-3.683E-01	-1.141E-01	 0.000E+00	 0.000E+00	 0.000E+00	-3.941E+02	 1.250E+03	 1.161E+01	-8.688E-01	-2.580E+02	 8.986E+00	-3.584E+00	 3.885E-01	-4.038E-02	 7.301E+02	-5.074E+02	-6.360E+01	 2.086E+03	 8.377E+00	 1.738E+03	 4.268E-01	 1.805E+03	 2.395E+02	 7.266E+02	 2.372E+01	 1.678E+00	-3.683E-01	 7.244E+00	 2.689E+02	-1.714E+01	 1.695E+03	 2.166E+04	-6.356E+01	 3.885E-01	-4.038E-02
   3.900	 1.200E+01	 0.000E+00	 0.000E+00	 0.000E+00	 0.000E+00	 7.340E+00	-3.500E-01	-1.202E-01	 0.000E+00	 0.000E+00	 0.000E+00	-3.825E+02	 1.239E+03	 1.156E+01	-1.478E+00	-2.581E+02	 1.352E+01	-9.982E+00	 3.792E-01	-3.862E-02	 7.331E+02	-5.128E+02	-6.781E+01	 2.085E+03	 8.377E+00	 1.737E+03	 4.266E-01	 1.805E+03	 2.370E+02	 7.270E+02	 2.370E+01	 1.641E+00	-3.500E-01	 7.240E+00	 2.645E+02	-8.654E+00	 1.394E+03	 2.118E+04	-6.777E+01	 3.792E-01	-3.862E-02
   3.950	 1.200E+01	 0.000E+00	 0.000E+00	 0.000E+00	 0.000E+00	 7.421E+00	-3.286E-01	-1.252E-01	 0.000E+00	 0.000E+00	 0.000E+00	-3.636E+02	 1.220E+03	 1.097E+01	-2.264E+00	-2.581E+02	 1.799E+01	-1.518E+01	 3.682E-01	-3.666E-02	 7.437E+02	-5.201E+02	-7.101E+01	 2.085E+03	 8.377E+00	 1.737E+03	 4.265E-01	 1.825E+03	 2.309E+02	 7.355E+02	 2.370E+01	 1.604E+00	-3.286E-01	 7.238E+00	 2.581E+02	-9.827E-02	 1.081E+03	 2.060E+04	-7.096E+01	 3.682E-01	-3.666E-02
   4.000	 1.200E+01	 0.000E+00	 0.000E+00	 0.000E+00	 0.000E+00	 7.581E+00	-3.076E-01	-1.325E-01	 0.000E+00	 0.000E+00	 0.000E+00	-3.457E+02	 1.204E+03	 1.057E+01	-2.427E+00	-2.583E+02	 2.155E+01	-2.128E+01	 3.557E-01	-3.449E-02	 7.458E+02	-5.291E+02	-7.690E+01	 2.085E+03	 8.377E+00	 1.737E+03	 4.265E-01	 1.833E+03	 2.259E+02	 7.386E+02	 2.370E+01	 1.568E+00	-3.076E-01	 7.238E+00	 2.491E+02	 3.461E+00	 9.010E+02	 1.988E+04	-7.686E+01	 3.557E-01	-3.449E-02
   4.050	 1.200E+01	 0.000E+00	 0.000E+00	 0.000E+00	 0.000E+00	 7.741E+00	-2.841E-01	-1.393E-01	 0.000E+00	 0.000E+00	 0.000E+00	-3.266E+02	 1.189E+03	 1.010E+01	-1.699E+00	-2.589E+02	 2.628E+01	-2.791E+01	 3.416E-01	-3.214E-02	 7.367E+02	-5.380E+02	-8.587E+01	 2.085E+03	 8.377E+00	 1.737E+03	 4.265E-01	 1.823E+03	 2.205E+02	 7.345E+02	 2.370E+01	 1.534E+00	-2.841E-01	 7.238E+00	 2.377E+02	 8.464E-01	 8.894E+02	 1.905E+04	-8.583E+01	 3.416E-01	-3.214E-02
   4.100	 1.200E+01	 0.000E+00	 0.000E+00	 0.000E+00	 0.000E+00	 7.902E+00	-2.592E-01	-1.467E-01	 0.000E+00	 0.000E+00	 0.000E+00	-3.044E+02	 1.177E+03	 9.844E+00	-4.230E-01	-2.597E+02	 3.138E+01	-3.521E+01	 3.263E-01	-2.970E-02	 7.208E+02	-5.481E+02	-9.696E+01	 2.084E+03	 8.377E+00	 1.736E+03	 4.263E-01	 1.799E+03	 2.161E+02	 7.253E+02	 2.369E+01	 1.501E+00	-2.592E-01	 7.235E+00	 2.253E+02	-4.411E+00	 9.499E+02	 1.814E+04	-9.692E+01	 3.263E-01	-2.970E-02
   4.150	 1.200E+01	 0.000E+00	 0.000E+00	 0.000E+00	 0.000E+00	 8.061E+00	-2.345E-01	-1.565E-01	 0.000E+00	 0.000E+00	 0.000E+00	-2.740E+02	 1.169E+03	 9.805E+00	 8.026E-01	-2.608E+02	 3.579E+01	-4.254E+01	 3.099E-01	-2.724E-02	 7.132E+02	-5.607E+02	-1.084E+02	 2.082E+03	 8.377E+00	 1.735E+03	 4.260E-01	 1.793E+03	 2.133E+02	 7.234E+02	 2.367E+01	 1.468E+00	-2.345E-01	 7.230E+00	 2.134E+02	-7.249E+00	 9.408E+02	 1.721E+04	-1.084E+02	 3.099E-01	-2.724E-02
   4.200	 1.200E+01	 0.000E+00	 0.000E+00	 0.000E+00	 0.000E+00	 8.216E+00	-2.118E-01	-1.704E-01	 0.000E+00	 0.000E+00	 0.000E+00	-2.340E+02	 1.155E+03	 9.307E+00	 1.275E+00	-2.616E+02	 3.903E+01	-4.840E+01	 2.926E-01	-2.483E-02	 7.100E+02	-5.758E+02	-1.157E+02	 2.080E+03	 8.377E+00	 1.734E+03	 4.256E-01	 1.788E+03	 2.077E+02	 7.220E+02	 2.365E+01	 1.436E+00	-2.118E-01	 7.224E+00	 2.023E+02	-4.309E+00	 7.729E+02	 1.627E+04	-1.157E+02	 2.926E-01	-2.483E-02
   4.250	 1.200E+01	 0.000E+00	 0.000E+00	 0.000E+00	 0.000E+00	 8.365E+00	-1.915E-01	-1.886E-01	 0.000E+00	 0.000E+00	 0.000E+00	-1.856E+02	 1.142E+03	 8.978E+00	 1.060E+00	-2.623E+02	 3.898E+01	-5.172E+01	 2.746E-01	-2.250E-02	 7.094E+02	-5.941E+02	-1.180E+02	 2.079E+03	 8.377E+00	 1.732E+03	 4.253E-01	 1.781E+03	 2.036E+02	 7.199E+02	 2.363E+01	 1.404E+00	-1.915E-01	 7.218E+00	 1.915E+02	 3.100E+00	 4.836E+02	 1.532E+04	-1.180E+02	 2.746E-01	-2.250E-02
   4.300	 1.200E+01	 0.000E+00	 0.000E+00	 0.000E+00	 0.000E+00	 8.510E+00	-1.730E-01	-2.101E-01	 0.000E+00	 0.000E+00	 0.000E+00	-1.271E+02	 1.123E+03	 8.303E+00	 7.367E-01	-2.624E+02	 3.735E+01	-5.343E+01	 2.562E-01	-2.024E-02	 7.165E+02	-6.125E+02	-1.191E+02	 2.078E+03	 8.377E+00	 1.731E+03	 4.250E-01	 1.795E+03	 1.977E+02	 7.258E+02	 2.362E+01	 1.374E+00	-1.730E-01	 7.214E+00	 1.798E+02	 1.014E+01	 2.048E+02	 1.433E+04	-1.191E+02	 2.562E-01	-2.024E-02
   4.350	 1.200E+01	 0.000E+00	 0.000E+00	 0.000E+00	 0.000E+00	 8.581E+00	-1.539E-01	-2.312E-01	 0.000E+00	 0.000E+00	 0.000E+00	-6.329E+01	 1.101E+03	 7.401E+00	 6.912E-01	-2.620E+02	 3.559E+01	-5.370E+01	 2.375E-01	-1.805E-02	 7.171E+02	-6.298E+02	-1.194E+02	 2.077E+03	 8.377E+00	 1.731E+03	 4.249E-01	 1.798E+03	 1.905E+02	 7.273E+02	 2.361E+01	 1.346E+00	-1.539E-01	 7.210E+00	 1.668E+02	 1.300E+01	 4.604E+01	 1.329E+04	-1.194E+02	 2.375E-01	-1.805E-02
   4.400	 1.200E+01	 0.000E+00	 0.000E+00	 0.000E+00	 0.000E+00	 8.724E+00	-1.374E-01	-2.535E-01	 0.000E+00	 0.000E+00	 0.000E+00	-1.520E+00	 1.082E+03	 6.713E+00	 1.174E+00	-2.619E+02	 3.312E+01	-5.494E+01	 2.189E-01	-1.596E-02	 7.085E+02	-6.471E+02	-1.221E+02	 2.076E+03	 8.377E+00	 1.730E+03	 4.247E-01	 1.785E+03	 1.850E+02	 7.224E+02	 2.360E+01	 1.319E+00	-1.374E-01	 7.207E+00	 1.528E+02	 1.097E+01	 2.986E+01	 1.223E+04	-1.221E+02	 2.189E-01	-1.596E-02
   4.450	 1.200E+01	 0.000E+00	 0.000E+00	 0.000E+00	 0.000E+00	 8.868E+00	-1.223E-01	-2.742E-01	 0.000E+00	 0.000E+00	 0.000E+00	 5.893E+01	 1.061E+03	 5.990E+00	 1.966E+00	-2.621E+02	 3.136E+01	-5.713E+01	 2.004E-01	-1.406E-02	 6.995E+02	-6.647E+02	-1.269E+02	 2.074E+03	 8.377E+00	 1.728E+03	 4.243E-01	 1.774E+03	 1.789E+02	 7.183E+02	 2.358E+01	 1.292E+00	-1.223E-01	 7.201E+00	 1.391E+02	 6.742E+00	 8.108E+01	 1.119E+04	-1.269E+02	 2.004E-01	-1.406E-02
   4.500	 1.200E+01	 0.000E+00	 0.000E+00	 0.000E+00	 0.000E+00	 9.010E+00	-1.096E-01	-2.928E-01	 0.000E+00	 0.000E+00	 0.000E+00	 1.153E+02	 1.040E+03	 5.411E+00	 2.559E+00	-2.626E+02	 2.935E+01	-5.996E+01	 1.825E-01	-1.241E-02	 6.903E+02	-6.838E+02	-1.314E+02	 2.072E+03	 8.377E+00	 1.726E+03	 4.238E-01	 1.757E+03	 1.734E+02	 7.124E+02	 2.355E+01	 1.265E+00	-1.096E-01	 7.193E+00	 1.266E+02	 4.666E+00	 8.268E+01	 1.020E+04	-1.314E+02	 1.825E-01	-1.241E-02
   4.550	 1.200E+01	 0.000E+00	 0.000E+00	 0.000E+00	 0.000E+00	 9.149E+00	-9.999E-02	-3.096E-01	 0.000E+00	 0.000E+00	 0.000E+00	 1.697E+02	 1.016E+03	 4.683E+00	 2.744E+00	-2.634E+02	 2.698E+01	-6.221E+01	 1.651E-01	-1.106E-02	 6.895E+02	-7.043E+02	-1.342E+02	 2.069E+03	 8.377E+00	 1.724E+03	 4.233E-01	 1.754E+03	 1.669E+02	 7.122E+02	 2.352E+01	 1.237E+00	-9.999E-02	 7.184E+00	 1.158E+02	 6.781E+00	-2.284E+01	 9.277E+03	-1.342E+02	 1.651E-01	-1.106E-02
   4.600	 1.200E+01	 0.000E+00	 0.000E+00	 0.000E+00	 0.000E+00	 9.282E+00	-9.338E-02	-3.251E-01	 0.000E+00	 0.000E+00	 0.000E+00	 2.214E+02	 9.921E+02	 4.185E+00	 2.609E+00	-2.641E+02	 2.277E+01	-6.322E+01	 1.486E-01	-1.002E-02	 6.928E+02	-7.257E+02	-1.347E+02	 2.067E+03	 8.377E+00	 1.722E+03	 4.228E-01	 1.756E+03	 1.614E+02	 7.138E+02	 2.349E+01	 1.209E+00	-9.338E-02	 7.175E+00	 1.061E+02	 1.196E+01	-2.027E+02	 8.420E+03	-1.347E+02	 1.486E-01	-1.002E-02
   4.650	 1.200E+01	 0.000E+00	 0.000E+00	 0.000E+00	 0.000E+00	 9.410E+00	-8.902E-02	-3.394E-01	 0.000E+00	 0.000E+00	 0.000E+00	 2.715E+02	 9.716E+02	 3.930E+00	 2.586E+00	-2.646E+02	 1.685E+01	-6.297E+01	 1.331E-01	-9.259E-03	 7.003E+02	-7.466E+02	-1.348E+02	 2.064E+03	 8.377E+00	 1.720E+03	 4.223E-01	 1.769E+03	 1.576E+02	 7.199E+02	 2.347E+01	 1.181E+00	-8.902E-02	 7.168E+00	 9.674E+01	 1.645E+01	-3.546E+02	 7.612E+03	-1.348E+02	 1.331E-01	-9.259E-03
   4.700	 1.200E+01	 0.000E+00	 0.000E+00	 0.000E+00	 0.000E+00	 9.534E+00	-8.625E-02	-3.528E-01	 0.000E+00	 0.000E+00	 0.000E+00	 3.193E+02	 9.474E+02	 3.426E+00	 2.796E+00	-2.646E+02	 1.030E+01	-6.148E+01	 1.188E-01	-8.757E-03	 6.993E+02	-7.655E+02	-1.338E+02	 2.062E+03	 8.377E+00	 1.719E+03	 4.219E-01	 1.765E+03	 1.524E+02	 7.188E+02	 2.345E+01	 1.151E+00	-8.625E-02	 7.161E+00	 8.722E+01	 1.746E+01	-3.980E+02	 6.843E+03	-1.338E+02	 1.188E-01	-8.758E-03
   4.750	 1.200E+01	 0.000E+00	 0.000E+00	 0.000E+00	 0.000E+00	 9.657E+00	-8.483E-02	-3.653E-01	 0.000E+00	 0.000E+00	 0.000E+00	 3.632E+02	 9.282E+02	 3.204E+00	 3.241E+00	-2.646E+02	 2.818E+00	-5.998E+01	 1.059E-01	-8.505E-03	 6.887E+02	-7.830E+02	-1.331E+02	 2.060E+03	 8.377E+00	 1.717E+03	 4.215E-01	 1.740E+03	 1.491E+02	 7.096E+02	 2.342E+01	 1.121E+00	-8.483E-02	 7.153E+00	 7.803E+01	 1.463E+01	-3.236E+02	 6.130E+03	-1.331E+02	 1.059E-01	-8.505E-03
   4.800	 1.200E+01	 0.000E+00	 0.000E+00	 0.000E+00	 0.000E+00	 9.777E+00	-8.505E-02	-3.770E-01	 0.000E+00	 0.000E+00	 0.000E+00	 4.062E+02	 9.076E+02	 2.784E+00	 3.712E+00	-2.645E+02	-4.588E+00	-5.905E+01	 9.429E-02	-8.520E-03	 6.815E+02	-7.996E+02	-1.335E+02	 2.057E+03	 8.377E+00	 1.714E+03	 4.209E-01	 1.726E+03	 1.448E+02	 7.048E+02	 2.339E+01	 1.090E+00	-8.505E-02	 7.143E+00	 6.980E+01	 1.013E+01	-1.945E+02	 5.498E+03	-1.335E+02	 9.429E-02	-8.520E-03
   4.850	 1.200E+01	 0.000E+00	 0.000E+00	 0.000E+00	 0.000E+00	 9.836E+00	-8.654E-02	-3.869E-01	 0.000E+00	 0.000E+00	 0.000E+00	 4.471E+02	 8.851E+02	 2.206E+00	 3.755E+00	-2.645E+02	-1.194E+01	-5.807E+01	 8.424E-02	-8.833E-03	 6.769E+02	-8.161E+02	-1.324E+02	 2.054E+03	 8.377E+00	 1.712E+03	 4.202E-01	 1.714E+03	 1.394E+02	 7.011E+02	 2.335E+01	 1.058E+00	-8.654E-02	 7.131E+00	 6.331E+01	 7.490E+00	-1.068E+02	 4.970E+03	-1.324E+02	 8.424E-02	-8.833E-03
   4.900	 1.200E+01	 0.000E+00	 0.000E+00	 0.000E+00	 0.000E+00	 9.950E+00	-9.213E-02	-3.969E-01	 0.000E+00	 0.000E+00	 0.000E+00	 4.819E+02	 8.672E+02	 1.849E+00	 3.267E+00	-2.648E+02	-1.970E+01	-5.744E+01	 7.578E-02	-9.458E-03	 6.774E+02	-8.328E+02	-1.300E+02	 2.050E+03	 8.377E+00	 1.709E+03	 4.195E-01	 1.708E+03	 1.356E+02	 6.999E+02	 2.331E+01	 1.026E+00	-9.213E-02	 7.119E+00	 5.886E+01	 8.333E+00	-1.054E+02	 4.557E+03	-1.300E+02	 7.578E-02	-9.458E-03
   4.950	 1.200E+01	 0.000E+00	 0.000E+00	 0.000E+00	 0.000E+00	 1.006E+01	-1.006E-01	-4.050E-01	 0.000E+00	 0.000E+00	 0.000E+00	 5.109E+02	 8.499E+02	 1.481E+00	 2.528E+00	-2.651E+02	-2.726E+01	-5.559E+01	 6.894E-02	-1.038E-02	 6.848E+02	-8.483E+02	-1.259E+02	 2.047E+03	 8.377E+00	 1.706E+03	 4.187E-01	 1.715E+03	 1.315E+02	 7.040E+02	 2.327E+01	 9.937E-01	-1.006E-01	 7.106E+00	 5.587E+01	 1.136E+01	-1.557E+02	 4.243E+03	-1.259E+02	 6.894E-02	-1.038E-02
   5.000	 1.200E+01	 0.000E+00	 0.000E+00	 0.000E+00	 0.000E+00	 1.016E+01	-1.115E-01	-4.104E-01	 0.000E+00	 0.000E+00	 0.000E+00	 5.304E+02	 8.363E+02	 1.274E+00	 1.886E+00	-2.653E+02	-3.434E+01	-5.219E+01	 6.375E-02	-1.156E-02	 6.896E+02	-8.611E+02	-1.203E+02	 2.043E+03	 8.377E+00	 1.703E+03	 4.180E-01	 1.716E+03	 1.284E+02	 7.055E+02	 2.323E+01	 9.623E-01	-1.115E-01	 7.095E+00	 5.368E+01	 1.380E+01	-1.796E+02	 4.010E+03	-1.203E+02	 6.375E-02	-1.156E-02
   5.050	 1.200E+01	 0.000E+00	 0.000E+00	 0.000E+00	 0.000E+00	 1.025E+01	-1.239E-01	-4.123E-01	 0.000E+00	 0.000E+00	 0.000E+00	 5.405E+02	 8.232E+02	 1.019E+00	 1.698E+00	-2.651E+02	-4.052E+01	-4.755E+01	 6.021E-02	-1.296E-02	 6.917E+02	-8.703E+02	-1.150E+02	 2.040E+03	 8.377E+00	 1.700E+03	 4.174E-01	 1.714E+03	 1.251E+02	 7.057E+02	 2.319E+01	 9.313E-01	-1.239E-01	 7.084E+00	 5.180E+01	 1.313E+01	-1.089E+02	 3.846E+03	-1.150E+02	 6.021E-02	-1.296E-02
   5.100	 1.200E+01	 0.000E+00	 0.000E+00	 0.000E+00	 0.000E+00	 1.035E+01	-1.372E-01	-4.105E-01	 0.000E+00	 0.000E+00	 0.000E+00	 5.401E+02	 8.137E+02	 9.981E-01	 1.894E+00	-2.648E+02	-4.587E+01	-4.242E+01	 5.829E-02	-1.454E-02	 6.876E+02	-8.761E+02	-1.101E+02	 2.037E+03	 8.377E+00	 1.697E+03	 4.167E-01	 1.701E+03	 1.230E+02	 7.015E+02	 2.315E+01	 9.013E-01	-1.372E-01	 7.072E+00	 5.045E+01	 9.319E+00	 5.691E+01	 3.753E+03	-1.101E+02	 5.829E-02	-1.454E-02
   5.150	 1.200E+01	 0.000E+00	 0.000E+00	 0.000E+00	 0.000E+00	 1.044E+01	-1.515E-01	-4.058E-01	 0.000E+00	 0.000E+00	 0.000E+00	 5.316E+02	 8.080E+02	 1.188E+00	 2.186E+00	-2.644E+02	-5.064E+01	-3.756E+01	 5.793E-02	-1.628E-02	 6.836E+02	-8.795E+02	-1.059E+02	 2.033E+03	 8.377E+00	 1.694E+03	 4.159E-01	 1.689E+03	 1.225E+02	 6.978E+02	 2.311E+01	 8.731E-01	-1.515E-01	 7.058E+00	 5.020E+01	 4.410E+00	 2.589E+02	 3.746E+03	-1.059E+02	 5.793E-02	-1.628E-02
   5.200	 1.200E+01	 0.000E+00	 0.000E+00	 0.000E+00	 0.000E+00	 1.052E+01	-1.668E-01	-3.993E-01	 0.000E+00	 0.000E+00	 0.000E+00	 5.177E+02	 8.003E+02	 1.251E+00	 2.146E+00	-2.639E+02	-5.498E+01	-3.319E+01	 5.906E-02	-1.818E-02	 6.819E+02	-8.818E+02	-1.012E+02	 2.029E+03	 8.377E+00	 1.690E+03	 4.150E-01	 1.679E+03	 1.211E+02	 6.952E+02	 2.306E+01	 8.474E-01	-1.668E-01	 7.044E+00	 5.140E+01	 1.171E+00	 4.194E+02	 3.833E+03	-1.012E+02	 5.906E-02	-1.818E-02
   5.250	 1.200E+01	 0.000E+00	 0.000E+00	 0.000E+00	 0.000E+00	 1.060E+01	-1.834E-01	-3.918E-01	 0.000E+00	 0.000E+00	 0.000E+00	 4.983E+02	 7.951E+02	 1.482E+00	 1.563E+00	-2.637E+02	-5.951E+01	-2.916E+01	 6.159E-02	-2.021E-02	 6.816E+02	-8.839E+02	-9.477E+01	 2.024E+03	 8.377E+00	 1.687E+03	 4.141E-01	 1.667E+03	 1.209E+02	 6.918E+02	 2.301E+01	 8.247E-01	-1.834E-01	 7.028E+00	 5.424E+01	 9.650E-01	 5.002E+02	 4.015E+03	-9.478E+01	 6.159E-02	-2.021E-02
   5.300	 1.200E+01	 0.000E+00	 0.000E+00	 0.000E+00	 0.000E+00	 1.067E+01	-2.012E-01	-3.835E-01	 0.000E+00	 0.000E+00	 0.000E+00	 4.765E+02	 7.882E+02	 1.566E+00	 7.156E-01	-2.635E+02	-6.393E+01	-2.537E+01	 6.542E-02	-2.233E-02	 6.884E+02	-8.855E+02	-8.822E+01	 2.020E+03	 8.377E+00	 1.683E+03	 4.132E-01	 1.670E+03	 1.200E+02	 6.945E+02	 2.296E+01	 8.052E-01	-2.012E-01	 7.013E+00	 5.821E+01	 2.536E+00	 5.326E+02	 4.275E+03	-8.822E+01	 6.542E-02	-2.233E-02
   5.350	 1.200E+01	 0.000E+00	 0.000E+00	 0.000E+00	 0.000E+00	 1.070E+01	-2.195E-01	-3.736E-01	 0.000E+00	 0.000E+00	 0.000E+00	 4.507E+02	 7.798E+02	 1.574E+00	-8.565E-02	-2.633E+02	-6.795E+01	-2.138E+01	 7.043E-02	-2.449E-02	 6.946E+02	-8.858E+02	-8.160E+01	 2.016E+03	 8.377E+00	 1.680E+03	 4.124E-01	 1.672E+03	 1.188E+02	 6.969E+02	 2.291E+01	 7.889E-01	-2.195E-01	 6.998E+00	 6.271E+01	 3.644E+00	 5.789E+02	 4.593E+03	-8.160E+01	 7.043E-02	-2.449E-02
   5.400	 1.200E+01	 0.000E+00	 0.000E+00	 0.000E+00	 0.000E+00	 1.077E+01	-2.386E-01	-3.625E-01	 0.000E+00	 0.000E+00	 0.000E+00	 4.187E+02	 7.735E+02	 1.734E+00	-5.366E-01	-2.632E+02	-7.131E+01	-1.803E+01	 7.648E-02	-2.662E-02	 6.967E+02	-8.843E+02	-7.664E+01	 2.012E+03	 8.377E+00	 1.676E+03	 4.115E-01	 1.668E+03	 1.187E+02	 6.967E+02	 2.287E+01	 7.756E-01	-2.386E-01	 6.984E+00	 6.743E+01	 2.408E+00	 6.904E+02	 4.952E+03	-7.664E+01	 7.648E-02	-2.662E-02
   5.450	 1.200E+01	 0.000E+00	 0.000E+00	 0.000E+00	 0.000E+00	 1.083E+01	-2.575E-01	-3.490E-01	 0.000E+00	 0.000E+00	 0.000E+00	 3.813E+02	 7.662E+02	 1.901E+00	-5.784E-01	-2.630E+02	-7.363E+01	-1.507E+01	 8.342E-02	-2.871E-02	 6.961E+02	-8.806E+02	-7.341E+01	 2.007E+03	 8.377E+00	 1.673E+03	 4.107E-01	 1.662E+03	 1.187E+02	 6.955E+02	 2.282E+01	 7.656E-01	-2.575E-01	 6.970E+00	 7.227E+01	-1.271E+00	 8.682E+02	 5.345E+03	-7.341E+01	 8.342E-02	-2.871E-02
   5.500	 1.200E+01	 0.000E+00	 0.000E+00	 0.000E+00	 0.000E+00	 1.089E+01	-2.760E-01	-3.333E-01	 0.000E+00	 0.000E+00	 0.000E+00	 3.381E+02	 7.592E+02	 2.155E+00	-4.918E-01	-2.628E+02	-7.504E+01	-1.253E+01	 9.108E-02	-3.072E-02	 6.927E+02	-8.751E+02	-7.085E+01	 2.003E+03	 8.377E+00	 1.669E+03	 4.098E-01	 1.650E+03	 1.194E+02	 6.919E+02	 2.277E+01	 7.593E-01	-2.760E-01	 6.955E+00	 7.753E+01	-5.544E+00	 1.060E+03	 5.774E+03	-7.084E+01	 9.108E-02	-3.072E-02
   5.550	 1.200E+01	 0.000E+00	 0.000E+00	 0.000E+00	 0.000E+00	 1.094E+01	-2.941E-01	-3.158E-01	 0.000E+00	 0.000E+00	 0.000E+00	 2.910E+02	 7.505E+02	 2.356E+00	-5.585E-01	-2.625E+02	-7.579E+01	-1.024E+01	 9.930E-02	-3.263E-02	 6.920E+02	-8.686E+02	-6.815E+01	 1.998E+03	 8.377E+00	 1.665E+03	 4.088E-01	 1.642E+03	 1.199E+02	 6.902E+02	 2.272E+01	 7.566E-01	-2.941E-01	 6.938E+00	 8.341E+01	-8.330E+00	 1.207E+03	 6.240E+03	-6.814E+01	 9.930E-02	-3.263E-02
   5.600	 1.200E+01	 0.000E+00	 0.000E+00	 0.000E+00	 0.000E+00	 1.099E+01	-3.117E-01	-2.969E-01	 0.000E+00	 0.000E+00	 0.000E+00	 2.403E+02	 7.420E+02	 2.660E+00	-9.682E-01	-2.622E+02	-7.619E+01	-8.039E+00	 1.079E-01	-3.442E-02	 6.942E+02	-8.613E+02	-6.446E+01	 1.993E+03	 8.377E+00	 1.661E+03	 4.078E-01	 1.638E+03	 1.210E+02	 6.902E+02	 2.266E+01	 7.574E-01	-3.117E-01	 6.922E+00	 8.994E+01	-8.605E+00	 1.278E+03	 6.736E+03	-6.444E+01	 1.079E-01	-3.442E-02
   5.650	 1.200E+01	 0.000E+00	 0.000E+00	 0.000E+00	 0.000E+00	 1.103E+01	-3.286E-01	-2.769E-01	 0.000E+00	 0.000E+00	 0.000E+00	 1.873E+02	 7.339E+02	 3.038E+00	-1.603E+00	-2.618E+02	-7.622E+01	-5.908E+00	 1.168E-01	-3.606E-02	 6.999E+02	-8.534E+02	-6.030E+01	 1.989E+03	 8.377E+00	 1.657E+03	 4.069E-01	 1.640E+03	 1.226E+02	 6.928E+02	 2.261E+01	 7.613E-01	-3.286E-01	 6.905E+00	 9.678E+01	-7.266E+00	 1.298E+03	 7.247E+03	-6.028E+01	 1.168E-01	-3.606E-02
   5.700	 1.200E+01	 0.000E+00	 0.000E+00	 0.000E+00	 0.000E+00	 1.107E+01	-3.440E-01	-2.559E-01	 0.000E+00	 0.000E+00	 0.000E+00	 1.328E+02	 7.237E+02	 3.338E+00	-2.211E+00	-2.614E+02	-7.550E+01	-3.942E+00	 1.257E-01	-3.750E-02	 7.050E+02	-8.445E+02	-5.642E+01	 1.984E+03	 8.377E+00	 1.654E+03	 4.060E-01	 1.643E+03	 1.238E+02	 6.953E+02	 2.256E+01	 7.676E-01	-3.440E-01	 6.890E+00	 1.034E+02	-6.174E+00	 1.317E+03	 7.753E+03	-5.640E+01	 1.257E-01	-3.750E-02
   5.750	 1.200E+01	 0.000E+00	 0.000E+00	 0.000E+00	 0.000E+00	 1.110E+01	-3.576E-01	-2.342E-01	 0.000E+00	 0.000E+00	 0.000E+00	 7.683E+01	 7.139E+02	 3.701E+00	-2.577E+00	-2.611E+02	-7.379E+01	-2.421E+00	 1.345E-01	-3.870E-02	 7.056E+02	-8.346E+02	-5.357E+01	 1.980E+03	 8.377E+00	 1.650E+03	 4.051E-01	 1.637E+03	 1.256E+02	 6.945E+02	 2.251E+01	 7.760E-01	-3.576E-01	 6.875E+00	 1.096E+02	-6.756E+00	 1.375E+03	 8.242E+03	-5.355E+01	 1.345E-01	-3.870E-02
   5.800	 1.200E+01	 0.000E+00	 0.000E+00	 0.000E+00	 0.000E+00	 1.113E+01	-3.690E-01	-2.122E-01	 0.000E+00	 0.000E+00	 0.000E+00	 2.181E+01	 7.029E+02	 3.989E+00	-2.596E+00	-2.608E+02	-7.079E+01	-1.624E+00	 1.431E-01	-3.966E-02	 7.043E+02	-8.236E+02	-5.265E+01	 1.976E+03	 8.377E+00	 1.646E+03	 4.042E-01	 1.631E+03	 1.271E+02	 6.934E+02	 2.246E+01	 7.860E-01	-3.690E-01	 6.860E+00	 1.152E+02	-9.112E+00	 1.474E+03	 8.705E+03	-5.263E+01	 1.431E-01	-3.966E-02
   5.850	 1.200E+01	 0.000E+00	 0.000E+00	 0.000E+00	 0.000E+00	 1.115E+01	-3.780E-01	-1.905E-01	 0.000E+00	 0.000E+00	 0.000E+00	-3.106E+01	 6.910E+02	 4.206E+00	-2.438E+00	-2.605E+02	-6.656E+01	-1.373E+00	 1.513E-01	-4.036E-02	 7.017E+02	-8.121E+02	-5.282E+01	 1.971E+03	 8.377E+00	 1.643E+03	 4.033E-01	 1.623E+03	 1.284E+02	 6.915E+02	 2.241E+01	 7.973E-01	-3.780E-01	 6.844E+00	 1.204E+02	-1.179E+01	 1.573E+03	 9.143E+03	-5.279E+01	 1.513E-01	-4.036E-02
   5.900	 1.200E+01	 0.000E+00	 0.000E+00	 0.000E+00	 0.000E+00	 1.118E+01	-3.853E-01	-1.701E-01	 0.000E+00	 0.000E+00	 0.000E+00	-8.124E+01	 6.804E+02	 4.439E+00	-2.315E+00	-2.604E+02	-6.156E+01	-1.647E+00	 1.590E-01	-4.082E-02	 7.004E+02	-8.006E+02	-5.342E+01	 1.967E+03	 8.377E+00	 1.639E+03	 4.023E-01	 1.617E+03	 1.299E+02	 6.905E+02	 2.236E+01	 8.090E-01	-3.853E-01	 6.828E+00	 1.255E+02	-1.313E+01	 1.625E+03	 9.557E+03	-5.339E+01	 1.590E-01	-4.082E-02
   5.950	 1.200E+01	 0.000E+00	 0.000E+00	 0.000E+00	 0.000E+00	 1.120E+01	-3.906E-01	-1.511E-01	 0.000E+00	 0.000E+00	 0.000E+00	-1.278E+02	 6.700E+02	 4.627E+00	-2.337E+00	-2.603E+02	-5.630E+01	-1.901E+00	 1.660E-01	-4.104E-02	 7.024E+02	-7.897E+02	-5.368E+01	 1.962E+03	 8.377E+00	 1.635E+03	 4.014E-01	 1.616E+03	 1.313E+02	 6.920E+02	 2.230E+01	 8.207E-01	-3.906E-01	 6.812E+00	 1.304E+02	-1.245E+01	 1.612E+03	 9.940E+03	-5.365E+01	 1.660E-01	-4.104E-02
   6.000	 1.200E+01	 0.000E+00	 0.000E+00	 0.000E+00	 0.000E+00	 1.122E+01	-3.939E-01	-1.336E-01	 0.000E+00	 0.000E+00	 0.000E+00	-1.714E+02	 6.609E+02	 4.816E+00	-2.471E+00	-2.602E+02	-5.132E+01	-2.001E+00	 1.723E-01	-4.099E-02	 7.055E+02	-7.795E+02	-5.346E+01	 1.957E+03	 8.377E+00	 1.631E+03	 4.005E-01	 1.618E+03	 1.327E+02	 6.942E+02	 2.225E+01	 8.320E-01	-3.939E-01	 6.796E+00	 1.348E+02	-1.042E+01	 1.551E+03	 1.028E+04	-5.342E+01	 1.723E-01	-4.099E-02
   6.050	 1.200E+01	 0.000E+00	 0.000E+00	 0.000E+00	 0.000E+00	 1.123E+01	-3.947E-01	-1.170E-01	 0.000E+00	 0.000E+00	 0.000E+00	-2.125E+02	 6.527E+02	 4.982E+00	-2.557E+00	-2.600E+02	-4.680E+01	-2.067E+00	 1.778E-01	-4.067E-02	 7.081E+02	-7.702E+02	-5.337E+01	 1.953E+03	 8.377E+00	 1.628E+03	 3.996E-01	 1.619E+03	 1.340E+02	 6.963E+02	 2.220E+01	 8.425E-01	-3.947E-01	 6.782E+00	 1.386E+02	-8.583E+00	 1.486E+03	 1.058E+04	-5.334E+01	 1.778E-01	-4.067E-02
   6.100	 1.200E+01	 0.000E+00	 0.000E+00	 0.000E+00	 0.000E+00	 1.124E+01	-3.928E-01	-1.011E-01	 0.000E+00	 0.000E+00	 0.000E+00	-2.512E+02	 6.462E+02	 5.174E+00	-2.462E+00	-2.599E+02	-4.273E+01	-2.401E+00	 1.824E-01	-4.007E-02	 7.085E+02	-7.618E+02	-5.414E+01	 1.949E+03	 8.377E+00	 1.624E+03	 3.988E-01	 1.618E+03	 1.354E+02	 6.972E+02	 2.216E+01	 8.522E-01	-3.928E-01	 6.768E+00	 1.414E+02	-8.070E+00	 1.448E+03	 1.082E+04	-5.410E+01	 1.824E-01	-4.007E-02
   6.150	 1.200E+01	 0.000E+00	 0.000E+00	 0.000E+00	 0.000E+00	 1.123E+01	-3.881E-01	-8.609E-02	 0.000E+00	 0.000E+00	 0.000E+00	-2.871E+02	 6.413E+02	 5.348E+00	-2.196E+00	-2.598E+02	-3.892E+01	-3.266E+00	 1.861E-01	-3.921E-02	 7.059E+02	-7.545E+02	-5.592E+01	 1.945E+03	 8.377E+00	 1.621E+03	 3.979E-01	 1.612E+03	 1.366E+02	 6.963E+02	 2.211E+01	 8.610E-01	-3.881E-01	 6.753E+00	 1.434E+02	-8.806E+00	 1.435E+03	 1.100E+04	-5.588E+01	 1.861E-01	-3.921E-02
   6.200	 1.200E+01	 0.000E+00	 0.000E+00	 0.000E+00	 0.000E+00	 1.122E+01	-3.807E-01	-7.260E-02	 0.000E+00	 0.000E+00	 0.000E+00	-3.188E+02	 6.384E+02	 5.510E+00	-1.871E+00	-2.598E+02	-3.522E+01	-4.762E+00	 1.888E-01	-3.810E-02	 7.025E+02	-7.484E+02	-5.851E+01	 1.941E+03	 8.377E+00	 1.617E+03	 3.971E-01	 1.606E+03	 1.377E+02	 6.950E+02	 2.206E+01	 8.692E-01	-3.807E-01	 6.739E+00	 1.447E+02	-9.684E+00	 1.418E+03	 1.112E+04	-5.847E+01	 1.888E-01	-3.810E-02
   6.250	 1.200E+01	 0.000E+00	 0.000E+00	 0.000E+00	 0.000E+00	 1.120E+01	-3.713E-01	-6.146E-02	 0.000E+00	 0.000E+00	 0.000E+00	-3.449E+02	 6.373E+02	 5.608E+00	-1.608E+00	-2.599E+02	-3.151E+01	-6.720E+00	 1.905E-01	-3.680E-02	 7.013E+02	-7.436E+02	-6.150E+01	 1.937E+03	 8.377E+00	 1.614E+03	 3.962E-01	 1.604E+03	 1.385E+02	 6.956E+02	 2.201E+01	 8.767E-01	-3.713E-01	 6.724E+00	 1.455E+02	-9.454E+00	 1.363E+03	 1.120E+04	-6.146E+01	 1.905E-01	-3.680E-02
   6.300	 1.200E+01	 0.000E+00	 0.000E+00	 0.000E+00	 0.000E+00	 1.117E+01	-3.602E-01	-5.333E-02	 0.000E+00	 0.000E+00	 0.000E+00	-3.648E+02	 6.389E+02	 5.718E+00	-1.476E+00	-2.601E+02	-2.786E+01	-8.741E+00	 1.912E-01	-3.531E-02	 7.017E+02	-7.400E+02	-6.412E+01	 1.932E+03	 8.377E+00	 1.610E+03	 3.953E-01	 1.603E+03	 1.394E+02	 6.969E+02	 2.197E+01	 8.837E-01	-3.602E-01	 6.709E+00	 1.458E+02	-7.594E+00	 1.256E+03	 1.122E+04	-6.408E+01	 1.912E-01	-3.531E-02
   6.350	 1.200E+01	 0.000E+00	 0.000E+00	 0.000E+00	 0.000E+00	 1.115E+01	-3.478E-01	-4.867E-02	 0.000E+00	 0.000E+00	 0.000E+00	-3.783E+02	 6.438E+02	 5.864E+00	-1.376E+00	-2.603E+02	-2.438E+01	-1.071E+01	 1.909E-01	-3.368E-02	 7.034E+02	-7.373E+02	-6.665E+01	 1.928E+03	 8.377E+00	 1.607E+03	 3.945E-01	 1.605E+03	 1.405E+02	 6.993E+02	 2.192E+01	 8.902E-01	-3.478E-01	 6.696E+00	 1.455E+02	-4.798E+00	 1.118E+03	 1.119E+04	-6.661E+01	 1.909E-01	-3.368E-02
   6.400	 1.200E+01	 0.000E+00	 0.000E+00	 0.000E+00	 0.000E+00	 1.112E+01	-3.336E-01	-4.687E-02	 0.000E+00	 0.000E+00	 0.000E+00	-3.850E+02	 6.499E+02	 5.950E+00	-1.167E+00	-2.604E+02	-2.102E+01	-1.225E+01	 1.898E-01	-3.192E-02	 7.047E+02	-7.352E+02	-6.912E+01	 1.925E+03	 8.377E+00	 1.604E+03	 3.937E-01	 1.608E+03	 1.413E+02	 7.016E+02	 2.188E+01	 8.968E-01	-3.336E-01	 6.683E+00	 1.443E+02	-2.310E+00	 9.830E+02	 1.111E+04	-6.909E+01	 1.898E-01	-3.192E-02
   6.450	 1.200E+01	 0.000E+00	 0.000E+00	 0.000E+00	 0.000E+00	 1.108E+01	-3.178E-01	-4.776E-02	 0.000E+00	 0.000E+00	 0.000E+00	-3.861E+02	 6.584E+02	 6.045E+00	-7.799E-01	-2.605E+02	-1.789E+01	-1.368E+01	 1.878E-01	-3.004E-02	 7.033E+02	-7.335E+02	-7.195E+01	 1.921E+03	 8.377E+00	 1.601E+03	 3.930E-01	 1.605E+03	 1.422E+02	 7.020E+02	 2.184E+01	 9.033E-01	-3.178E-01	 6.670E+00	 1.424E+02	-9.845E-01	 8.777E+02	 1.098E+04	-7.191E+01	 1.878E-01	-3.004E-02
   6.500	 1.200E+01	 0.000E+00	 0.000E+00	 0.000E+00	 0.000E+00	 1.105E+01	-3.008E-01	-5.104E-02	 0.000E+00	 0.000E+00	 0.000E+00	-3.813E+02	 6.680E+02	 6.101E+00	-2.287E-01	-2.606E+02	-1.505E+01	-1.520E+01	 1.850E-01	-2.809E-02	 7.006E+02	-7.326E+02	-7.543E+01	 1.917E+03	 8.377E+00	 1.598E+03	 3.923E-01	 1.602E+03	 1.428E+02	 7.020E+02	 2.180E+01	 9.099E-01	-3.008E-01	 6.658E+00	 1.398E+02	-7.820E-01	 8.010E+02	 1.080E+04	-7.539E+01	 1.850E-01	-2.809E-02
   6.550	 1.200E+01	 0.000E+00	 0.000E+00	 0.000E+00	 0.000E+00	 1.102E+01	-2.828E-01	-5.653E-02	 0.000E+00	 0.000E+00	 0.000E+00	-3.713E+02	 6.793E+02	 6.182E+00	 3.378E-01	-2.607E+02	-1.258E+01	-1.693E+01	 1.816E-01	-2.609E-02	 6.980E+02	-7.327E+02	-7.919E+01	 1.914E+03	 8.377E+00	 1.595E+03	 3.916E-01	 1.600E+03	 1.435E+02	 7.021E+02	 2.176E+01	 9.161E-01	-2.828E-01	 6.645E+00	 1.367E+02	-7.558E-01	 7.280E+02	 1.058E+04	-7.916E+01	 1.816E-01	-2.609E-02
   6.600	 1.200E+01	 0.000E+00	 0.000E+00	 0.000E+00	 0.000E+00	 1.098E+01	-2.644E-01	-6.413E-02	 0.000E+00	 0.000E+00	 0.000E+00	-3.560E+02	 6.907E+02	 6.197E+00	 7.600E-01	-2.609E+02	-1.056E+01	-1.883E+01	 1.776E-01	-2.410E-02	 6.958E+02	-7.341E+02	-8.260E+01	 1.910E+03	 8.377E+00	 1.592E+03	 3.908E-01	 1.597E+03	 1.438E+02	 7.021E+02	 2.172E+01	 9.220E-01	-2.644E-01	 6.633E+00	 1.335E+02	 1.512E-01	 6.309E+02	 1.034E+04	-8.257E+01	 1.776E-01	-2.410E-02
   6.650	 1.200E+01	 0.000E+00	 0.000E+00	 0.000E+00	 0.000E+00	 1.095E+01	-2.460E-01	-7.374E-02	 0.000E+00	 0.000E+00	 0.000E+00	-3.354E+02	 7.011E+02	 6.127E+00	 1.010E+00	-2.612E+02	-9.063E+00	-2.063E+01	 1.731E-01	-2.215E-02	 6.953E+02	-7.369E+02	-8.538E+01	 1.907E+03	 8.377E+00	 1.589E+03	 3.901E-01	 1.596E+03	 1.435E+02	 7.030E+02	 2.168E+01	 9.273E-01	-2.460E-01	 6.621E+00	 1.302E+02	 2.235E+00	 5.024E+02	 1.008E+04	-8.535E+01	 1.731E-01	-2.215E-02
   6.700	 1.200E+01	 0.000E+00	 0.000E+00	 0.000E+00	 0.000E+00	 1.092E+01	-2.276E-01	-8.519E-02	 0.000E+00	 0.000E+00	 0.000E+00	-3.098E+02	 7.123E+02	 6.085E+00	 1.177E+00	-2.615E+02	-8.210E+00	-2.212E+01	 1.682E-01	-2.027E-02	 6.963E+02	-7.407E+02	-8.762E+01	 1.904E+03	 8.377E+00	 1.586E+03	 3.894E-01	 1.597E+03	 1.435E+02	 7.049E+02	 2.164E+01	 9.321E-01	-2.276E-01	 6.609E+00	 1.267E+02	 4.896E+00	 3.604E+02	 9.810E+03	-8.760E+01	 1.682E-01	-2.027E-02
   6.750	 1.200E+01	 0.000E+00	 0.000E+00	 0.000E+00	 0.000E+00	 1.089E+01	-2.093E-01	-9.829E-02	 0.000E+00	 0.000E+00	 0.000E+00	-2.789E+02	 7.221E+02	 5.951E+00	 1.400E+00	-2.617E+02	-7.885E+00	-2.313E+01	 1.632E-01	-1.848E-02	 6.983E+02	-7.451E+02	-8.971E+01	 1.900E+03	 8.377E+00	 1.584E+03	 3.888E-01	 1.602E+03	 1.429E+02	 7.081E+02	 2.160E+01	 9.366E-01	-2.093E-01	 6.599E+00	 1.230E+02	 7.061E+00	 2.353E+02	 9.522E+03	-8.968E+01	 1.632E-01	-1.848E-02
   6.800	 1.200E+01	 0.000E+00	 0.000E+00	 0.000E+00	 0.000E+00	 1.086E+01	-1.910E-01	-1.128E-01	 0.000E+00	 0.000E+00	 0.000E+00	-2.442E+02	 7.324E+02	 5.847E+00	 1.746E+00	-2.620E+02	-8.036E+00	-2.373E+01	 1.580E-01	-1.681E-02	 6.972E+02	-7.499E+02	-9.157E+01	 1.897E+03	 8.377E+00	 1.581E+03	 3.882E-01	 1.601E+03	 1.427E+02	 7.086E+02	 2.157E+01	 9.406E-01	-1.910E-01	 6.588E+00	 1.192E+02	 8.153E+00	 1.454E+02	 9.226E+03	-9.155E+01	 1.580E-01	-1.681E-02
   6.850	 1.200E+01	 0.000E+00	 0.000E+00	 0.000E+00	 0.000E+00	 1.084E+01	-1.732E-01	-1.289E-01	 0.000E+00	 0.000E+00	 0.000E+00	-2.056E+02	 7.431E+02	 5.755E+00	 2.191E+00	-2.622E+02	-8.692E+00	-2.409E+01	 1.528E-01	-1.529E-02	 6.948E+02	-7.550E+02	-9.347E+01	 1.894E+03	 8.377E+00	 1.579E+03	 3.876E-01	 1.597E+03	 1.428E+02	 7.081E+02	 2.154E+01	 9.443E-01	-1.732E-01	 6.578E+00	 1.152E+02	 8.225E+00	 8.958E+01	 8.928E+03	-9.345E+01	 1.528E-01	-1.529E-02
   6.900	 1.200E+01	 0.000E+00	 0.000E+00	 0.000E+00	 0.000E+00	 1.081E+01	-1.558E-01	-1.461E-01	 0.000E+00	 0.000E+00	 0.000E+00	-1.628E+02	 7.527E+02	 5.584E+00	 2.616E+00	-2.624E+02	-9.803E+00	-2.396E+01	 1.477E-01	-1.394E-02	 6.925E+02	-7.603E+02	-9.480E+01	 1.891E+03	 8.377E+00	 1.576E+03	 3.870E-01	 1.593E+03	 1.424E+02	 7.077E+02	 2.150E+01	 9.475E-01	-1.558E-01	 6.568E+00	 1.114E+02	 8.043E+00	 4.725E+01	 8.638E+03	-9.479E+01	 1.477E-01	-1.394E-02
   6.950	 1.200E+01	 0.000E+00	 0.000E+00	 0.000E+00	 0.000E+00	 1.079E+01	-1.395E-01	-1.644E-01	 0.000E+00	 0.000E+00	 0.000E+00	-1.166E+02	 7.623E+02	 5.397E+00	 2.879E+00	-2.625E+02	-1.145E+01	-2.352E+01	 1.427E-01	-1.279E-02	 6.907E+02	-7.660E+02	-9.524E+01	 1.888E+03	 8.377E+00	 1.574E+03	 3.864E-01	 1.589E+03	 1.422E+02	 7.070E+02	 2.147E+01	 9.501E-01	-1.395E-01	 6.557E+00	 1.079E+02	 8.456E+00	-4.089E+00	 8.365E+03	-9.523E+01	 1.427E-01	-1.279E-02
   7.000	 1.200E+01	 0.000E+00	 0.000E+00	 0.000E+00	 0.000E+00	 1.076E+01	-1.247E-01	-1.838E-01	 0.000E+00	 0.000E+00	 0.000E+00	-6.742E+01	 7.711E+02	 5.160E+00	 2.962E+00	-2.627E+02	-1.358E+01	-2.280E+01	 1.381E-01	-1.186E-02	 6.912E+02	-7.719E+02	-9.490E+01	 1.885E+03	 8.377E+00	 1.571E+03	 3.857E-01	 1.589E+03	 1.418E+02	 7.079E+02	 2.143E+01	 9.523E-01	-1.247E-01	 6.547E+00	 1.048E+02	 9.658E+00	-6.967E+01	 8.114E+03	-9.489E+01	 1.381E-01	-1.186E-02
   7.050	 1.200E+01	 0.000E+00	 0.000E+00	 0.000E+00	 0.000E+00	 1.073E+01	-1.115E-01	-2.039E-01	 0.000E+00	 0.000E+00	 0.000E+00	-1.632E+01	 7.802E+02	 4.939E+00	 2.929E+00	-2.628E+02	-1.609E+01	-2.184E+01	 1.339E-01	-1.117E-02	 6.932E+02	-7.780E+02	-9.399E+01	 1.883E+03	 8.377E+00	 1.569E+03	 3.852E-01	 1.591E+03	 1.416E+02	 7.097E+02	 2.140E+01	 9.541E-01	-1.115E-01	 6.537E+00	 1.020E+02	 1.117E+01	-1.357E+02	 7.888E+03	-9.398E+01	 1.339E-01	-1.117E-02
   7.100	 1.200E+01	 0.000E+00	 0.000E+00	 0.000E+00	 0.000E+00	 1.070E+01	-9.994E-02	-2.242E-01	 0.000E+00	 0.000E+00	 0.000E+00	 3.545E+01	 7.887E+02	 4.664E+00	 2.876E+00	-2.629E+02	-1.872E+01	-2.064E+01	 1.302E-01	-1.073E-02	 6.943E+02	-7.837E+02	-9.269E+01	 1.880E+03	 8.377E+00	 1.567E+03	 3.846E-01	 1.590E+03	 1.412E+02	 7.106E+02	 2.137E+01	 9.556E-01	-9.994E-02	 6.527E+00	 9.950E+01	 1.222E+01	-1.797E+02	 7.688E+03	-9.268E+01	 1.302E-01	-1.073E-02
   7.150	 1.200E+01	 0.000E+00	 0.000E+00	 0.000E+00	 0.000E+00	 1.067E+01	-8.985E-02	-2.443E-01	 0.000E+00	 0.000E+00	 0.000E+00	 8.712E+01	 7.965E+02	 4.325E+00	 2.901E+00	-2.630E+02	-2.134E+01	-1.931E+01	 1.270E-01	-1.052E-02	 6.942E+02	-7.890E+02	-9.145E+01	 1.877E+03	 8.377E+00	 1.564E+03	 3.841E-01	 1.588E+03	 1.406E+02	 7.105E+02	 2.134E+01	 9.567E-01	-8.985E-02	 6.518E+00	 9.729E+01	 1.226E+01	-1.864E+02	 7.516E+03	-9.145E+01	 1.270E-01	-1.052E-02
   7.200	 1.200E+01	 0.000E+00	 0.000E+00	 0.000E+00	 0.000E+00	 1.063E+01	-8.134E-02	-2.640E-01	 0.000E+00	 0.000E+00	 0.000E+00	 1.377E+02	 8.055E+02	 4.041E+00	 3.006E+00	-2.631E+02	-2.396E+01	-1.800E+01	 1.244E-01	-1.056E-02	 6.933E+02	-7.936E+02	-9.046E+01	 1.875E+03	 8.377E+00	 1.562E+03	 3.835E-01	 1.584E+03	 1.404E+02	 7.100E+02	 2.131E+01	 9.575E-01	-8.134E-02	 6.509E+00	 9.547E+01	 1.140E+01	-1.587E+02	 7.376E+03	-9.046E+01	 1.244E-01	-1.056E-02
   7.250	 1.200E+01	 0.000E+00	 0.000E+00	 0.000E+00	 0.000E+00	 1.060E+01	-7.456E-02	-2.832E-01	 0.000E+00	 0.000E+00	 0.000E+00	 1.874E+02	 8.139E+02	 3.700E+00	 3.121E+00	-2.631E+02	-2.648E+01	-1.669E+01	 1.225E-01	-1.086E-02	 6.937E+02	-7.977E+02	-8.960E+01	 1.872E+03	 8.377E+00	 1.560E+03	 3.830E-01	 1.584E+03	 1.401E+02	 7.106E+02	 2.128E+01	 9.578E-01	-7.456E-02	 6.499E+00	 9.409E+01	 1.023E+01	-1.141E+02	 7.273E+03	-8.961E+01	 1.225E-01	-1.086E-02
   7.300	 1.200E+01	 0.000E+00	 0.000E+00	 0.000E+00	 0.000E+00	 1.059E+01	-7.003E-02	-3.021E-01	 0.000E+00	 0.000E+00	 0.000E+00	 2.348E+02	 8.242E+02	 3.475E+00	 3.110E+00	-2.632E+02	-2.911E+01	-1.541E+01	 1.212E-01	-1.140E-02	 6.938E+02	-8.012E+02	-8.824E+01	 1.869E+03	 8.377E+00	 1.558E+03	 3.824E-01	 1.581E+03	 1.405E+02	 7.104E+02	 2.125E+01	 9.578E-01	-7.003E-02	 6.490E+00	 9.333E+01	 9.514E+00	-7.272E+01	 7.212E+03	-8.826E+01	 1.212E-01	-1.140E-02
   7.350	 1.200E+01	 0.000E+00	 0.000E+00	 0.000E+00	 0.000E+00	 1.056E+01	-6.739E-02	-3.201E-01	 0.000E+00	 0.000E+00	 0.000E+00	 2.806E+02	 8.338E+02	 3.193E+00	 2.952E+00	-2.633E+02	-3.180E+01	-1.373E+01	 1.207E-01	-1.218E-02	 6.952E+02	-8.042E+02	-8.600E+01	 1.866E+03	 8.377E+00	 1.555E+03	 3.818E-01	 1.579E+03	 1.407E+02	 7.107E+02	 2.122E+01	 9.575E-01	-6.739E-02	 6.480E+00	 9.314E+01	 9.399E+00	-3.966E+01	 7.193E+03	-8.601E+01	 1.207E-01	-1.218E-02
   7.400	 1.200E+01	 0.000E+00	 0.000E+00	 0.000E+00	 0.000E+00	 1.052E+01	-6.693E-02	-3.374E-01	 0.000E+00	 0.000E+00	 0.000E+00	 3.241E+02	 8.437E+02	 2.921E+00	 2.695E+00	-2.633E+02	-3.460E+01	-1.184E+01	 1.208E-01	-1.319E-02	 6.978E+02	-8.066E+02	-8.328E+01	 1.864E+03	 8.377E+00	 1.553E+03	 3.813E-01	 1.579E+03	 1.410E+02	 7.118E+02	 2.119E+01	 9.570E-01	-6.693E-02	 6.471E+00	 9.350E+01	 9.487E+00	-4.658E+00	 7.216E+03	-8.329E+01	 1.208E-01	-1.319E-02
   7.450	 1.200E+01	 0.000E+00	 0.000E+00	 0.000E+00	 0.000E+00	 1.049E+01	-6.857E-02	-3.539E-01	 0.000E+00	 0.000E+00	 0.000E+00	 3.643E+02	 8.542E+02	 2.687E+00	 2.401E+00	-2.632E+02	-3.741E+01	-9.830E+00	 1.218E-01	-1.439E-02	 6.998E+02	-8.082E+02	-8.024E+01	 1.861E+03	 8.377E+00	 1.551E+03	 3.808E-01	 1.578E+03	 1.415E+02	 7.121E+02	 2.116E+01	 9.565E-01	-6.857E-02	 6.462E+00	 9.436E+01	 9.194E+00	 4.814E+01	 7.279E+03	-8.026E+01	 1.218E-01	-1.439E-02
   7.500	 1.200E+01	 0.000E+00	 0.000E+00	 0.000E+00	 0.000E+00	 1.045E+01	-7.223E-02	-3.691E-01	 0.000E+00	 0.000E+00	 0.000E+00	 4.011E+02	 8.648E+02	 2.450E+00	 2.150E+00	-2.632E+02	-4.008E+01	-7.844E+00	 1.234E-01	-1.576E-02	 7.013E+02	-8.089E+02	-7.739E+01	 1.859E+03	 8.377E+00	 1.549E+03	 3.803E-01	 1.576E+03	 1.421E+02	 7.124E+02	 2.113E+01	 9.560E-01	-7.223E-02	 6.454E+00	 9.563E+01	 8.103E+00	 1.292E+02	 7.380E+03	-7.741E+01	 1.234E-01	-1.576E-02
   7.550	 1.200E+01	 0.000E+00	 0.000E+00	 0.000E+00	 0.000E+00	 1.042E+01	-7.784E-02	-3.829E-01	 0.000E+00	 0.000E+00	 0.000E+00	 4.334E+02	 8.762E+02	 2.286E+00	 1.943E+00	-2.631E+02	-4.248E+01	-5.922E+00	 1.257E-01	-1.728E-02	 7.026E+02	-8.089E+02	-7.476E+01	 1.856E+03	 8.377E+00	 1.547E+03	 3.797E-01	 1.575E+03	 1.431E+02	 7.126E+02	 2.110E+01	 9.558E-01	-7.784E-02	 6.445E+00	 9.735E+01	 6.351E+00	 2.340E+02	 7.517E+03	-7.478E+01	 1.257E-01	-1.728E-02
   7.600	 1.200E+01	 0.000E+00	 0.000E+00	 0.000E+00	 0.000E+00	 1.038E+01	-8.544E-02	-3.950E-01	 0.000E+00	 0.000E+00	 0.000E+00	 4.608E+02	 8.872E+02	 2.106E+00	 1.710E+00	-2.630E+02	-4.447E+01	-4.058E+00	 1.287E-01	-1.894E-02	 7.030E+02	-8.078E+02	-7.200E+01	 1.854E+03	 8.377E+00	 1.545E+03	 3.792E-01	 1.571E+03	 1.440E+02	 7.118E+02	 2.107E+01	 9.561E-01	-8.544E-02	 6.436E+00	 9.950E+01	 4.510E+00	 3.460E+02	 7.691E+03	-7.202E+01	 1.287E-01	-1.894E-02
   7.650	 1.200E+01	 0.000E+00	 0.000E+00	 0.000E+00	 0.000E+00	 1.034E+01	-9.507E-02	-4.053E-01	 0.000E+00	 0.000E+00	 0.000E+00	 4.833E+02	 8.971E+02	 1.892E+00	 1.410E+00	-2.629E+02	-4.601E+01	-2.120E+00	 1.324E-01	-2.070E-02	 7.041E+02	-8.059E+02	-6.895E+01	 1.851E+03	 8.377E+00	 1.543E+03	 3.787E-01	 1.568E+03	 1.445E+02	 7.114E+02	 2.104E+01	 9.572E-01	-9.507E-02	 6.427E+00	 1.021E+02	 3.073E+00	 4.504E+02	 7.899E+03	-6.897E+01	 1.324E-01	-2.070E-02
   7.700	 1.200E+01	 0.000E+00	 0.000E+00	 0.000E+00	 0.000E+00	 1.030E+01	-1.067E-01	-4.138E-01	 0.000E+00	 0.000E+00	 0.000E+00	 5.003E+02	 9.079E+02	 1.782E+00	 1.036E+00	-2.628E+02	-4.710E+01	-5.753E-02	 1.366E-01	-2.253E-02	 7.065E+02	-8.031E+02	-6.558E+01	 1.849E+03	 8.377E+00	 1.540E+03	 3.782E-01	 1.566E+03	 1.456E+02	 7.117E+02	 2.101E+01	 9.593E-01	-1.067E-01	 6.418E+00	 1.052E+02	 2.169E+00	 5.422E+02	 8.139E+03	-6.560E+01	 1.366E-01	-2.253E-02
   7.750	 1.200E+01	 0.000E+00	 0.000E+00	 0.000E+00	 0.000E+00	 1.026E+01	-1.201E-01	-4.203E-01	 0.000E+00	 0.000E+00	 0.000E+00	 5.122E+02	 9.174E+02	 1.636E+00	 6.588E-01	-2.626E+02	-4.776E+01	 2.148E+00	 1.412E-01	-2.442E-02	 7.112E+02	-7.993E+02	-6.226E+01	 1.846E+03	 8.377E+00	 1.538E+03	 3.777E-01	 1.570E+03	 1.463E+02	 7.145E+02	 2.099E+01	 9.625E-01	-1.201E-01	 6.410E+00	 1.085E+02	 1.440E+00	 6.299E+02	 8.407E+03	-6.228E+01	 1.412E-01	-2.442E-02
   7.800	 1.200E+01	 0.000E+00	 0.000E+00	 0.000E+00	 0.000E+00	 1.024E+01	-1.354E-01	-4.250E-01	 0.000E+00	 0.000E+00	 0.000E+00	 5.174E+02	 9.288E+02	 1.685E+00	 2.897E-01	-2.625E+02	-4.827E+01	 4.225E+00	 1.464E-01	-2.631E-02	 7.140E+02	-7.949E+02	-5.892E+01	 1.844E+03	 8.377E+00	 1.536E+03	 3.772E-01	 1.570E+03	 1.481E+02	 7.152E+02	 2.096E+01	 9.670E-01	-1.354E-01	 6.402E+00	 1.122E+02	 5.358E-01	 7.231E+02	 8.698E+03	-5.894E+01	 1.464E-01	-2.631E-02
   7.850	 1.200E+01	 0.000E+00	 0.000E+00	 0.000E+00	 0.000E+00	 1.020E+01	-1.518E-01	-4.272E-01	 0.000E+00	 0.000E+00	 0.000E+00	 5.171E+02	 9.382E+02	 1.700E+00	-1.873E-02	-2.623E+02	-4.853E+01	 6.464E+00	 1.519E-01	-2.817E-02	 7.156E+02	-7.898E+02	-5.557E+01	 1.841E+03	 8.377E+00	 1.535E+03	 3.768E-01	 1.568E+03	 1.495E+02	 7.151E+02	 2.093E+01	 9.728E-01	-1.518E-01	 6.394E+00	 1.161E+02	-8.676E-01	 8.293E+02	 9.006E+03	-5.558E+01	 1.519E-01	-2.817E-02
   7.900	 1.200E+01	 0.000E+00	 0.000E+00	 0.000E+00	 0.000E+00	 1.016E+01	-1.693E-01	-4.273E-01	 0.000E+00	 0.000E+00	 0.000E+00	 5.115E+02	 9.470E+02	 1.765E+00	-2.694E-01	-2.621E+02	-4.859E+01	 8.449E+00	 1.577E-01	-2.997E-02	 7.169E+02	-7.842E+02	-5.269E+01	 1.839E+03	 8.377E+00	 1.533E+03	 3.763E-01	 1.566E+03	 1.510E+02	 7.151E+02	 2.091E+01	 9.802E-01	-1.693E-01	 6.386E+00	 1.201E+02	-2.661E+00	 9.439E+02	 9.327E+03	-5.271E+01	 1.577E-01	-2.997E-02
   7.950	 1.200E+01	 0.000E+00	 0.000E+00	 0.000E+00	 0.000E+00	 1.012E+01	-1.879E-01	-4.253E-01	 0.000E+00	 0.000E+00	 0.000E+00	 5.004E+02	 9.554E+02	 1.901E+00	-5.308E-01	-2.619E+02	-4.844E+01	 1.012E+01	 1.637E-01	-3.170E-02	 7.174E+02	-7.783E+02	-5.003E+01	 1.837E+03	 8.377E+00	 1.531E+03	 3.758E-01	 1.562E+03	 1.528E+02	 7.142E+02	 2.088E+01	 9.892E-01	-1.879E-01	 6.378E+00	 1.242E+02	-4.361E+00	 1.053E+03	 9.659E+03	-5.004E+01	 1.637E-01	-3.170E-02
   8.000	 1.200E+01	 0.000E+00	 0.000E+00	 0.000E+00	 0.000E+00	 1.007E+01	-2.073E-01	-4.215E-01	 0.000E+00	 0.000E+00	 0.000E+00	 4.846E+02	 9.623E+02	 2.046E+00	-8.189E-01	-2.618E+02	-4.806E+01	 1.150E+01	 1.698E-01	-3.331E-02	 7.191E+02	-7.723E+02	-4.765E+01	 1.835E+03	 8.377E+00	 1.529E+03	 3.754E-01	 1.561E+03	 1.544E+02	 7.146E+02	 2.086E+01	 9.998E-01	-2.073E-01	 6.370E+00	 1.284E+02	-5.610E+00	 1.145E+03	 9.999E+03	-4.766E+01	 1.698E-01	-3.331E-02
   8.050	 1.200E+01	 0.000E+00	 0.000E+00	 0.000E+00	 0.000E+00	 1.003E+01	-2.275E-01	-4.159E-01	 0.000E+00	 0.000E+00	 0.000E+00	 4.641E+02	 9.689E+02	 2.288E+00	-1.144E+00	-2.617E+02	-4.747E+01	 1.264E+01	 1.760E-01	-3.479E-02	 7.214E+02	-7.661E+02	-4.542E+01	 1.832E+03	 8.377E+00	 1.527E+03	 3.749E-01	 1.560E+03	 1.564E+02	 7.153E+02	 2.083E+01	 1.012E+00	-2.275E-01	 6.363E+00	 1.327E+02	-6.279E+00	 1.216E+03	 1.034E+04	-4.543E+01	 1.760E-01	-3.479E-02
   8.100	 1.200E+01	 0.000E+00	 0.000E+00	 0.000E+00	 0.000E+00	 9.986E+00	-2.481E-01	-4.084E-01	 0.000E+00	 0.000E+00	 0.000E+00	 4.392E+02	 9.722E+02	 2.419E+00	-1.464E+00	-2.615E+02	-4.660E+01	 1.366E+01	 1.821E-01	-3.611E-02	 7.238E+02	-7.599E+02	-4.334E+01	 1.830E+03	 8.377E+00	 1.525E+03	 3.745E-01	 1.561E+03	 1.575E+02	 7.162E+02	 2.081E+01	 1.026E+00	-2.481E-01	 6.355E+00	 1.369E+02	-6.628E+00	 1.272E+03	 1.068E+04	-4.335E+01	 1.821E-01	-3.611E-02
   8.150	 1.200E+01	 0.000E+00	 0.000E+00	 0.000E+00	 0.000E+00	 9.964E+00	-2.691E-01	-3.993E-01	 0.000E+00	 0.000E+00	 0.000E+00	 4.098E+02	 9.759E+02	 2.672E+00	-1.686E+00	-2.614E+02	-4.553E+01	 1.420E+01	 1.881E-01	-3.726E-02	 7.276E+02	-7.534E+02	-4.226E+01	 1.828E+03	 8.377E+00	 1.524E+03	 3.741E-01	 1.565E+03	 1.592E+02	 7.189E+02	 2.079E+01	 1.040E+00	-2.691E-01	 6.349E+00	 1.411E+02	-7.118E+00	 1.325E+03	 1.101E+04	-4.225E+01	 1.881E-01	-3.726E-02
   8.200	 1.200E+01	 0.000E+00	 0.000E+00	 0.000E+00	 0.000E+00	 9.918E+00	-2.896E-01	-3.880E-01	 0.000E+00	 0.000E+00	 0.000E+00	 3.757E+02	 9.781E+02	 2.955E+00	-1.848E+00	-2.613E+02	-4.423E+01	 1.482E+01	 1.939E-01	-3.819E-02	 7.280E+02	-7.468E+02	-4.102E+01	 1.826E+03	 8.377E+00	 1.522E+03	 3.737E-01	 1.562E+03	 1.609E+02	 7.185E+02	 2.076E+01	 1.056E+00	-2.896E-01	 6.342E+00	 1.450E+02	-7.819E+00	 1.377E+03	 1.132E+04	-4.101E+01	 1.939E-01	-3.819E-02
   8.250	 1.200E+01	 0.000E+00	 0.000E+00	 0.000E+00	 0.000E+00	 9.871E+00	-3.095E-01	-3.748E-01	 0.000E+00	 0.000E+00	 0.000E+00	 3.374E+02	 9.803E+02	 3.376E+00	-1.928E+00	-2.612E+02	-4.270E+01	 1.512E+01	 1.994E-01	-3.892E-02	 7.274E+02	-7.401E+02	-4.035E+01	 1.825E+03	 8.377E+00	 1.520E+03	 3.733E-01	 1.559E+03	 1.631E+02	 7.175E+02	 2.074E+01	 1.072E+00	-3.095E-01	 6.335E+00	 1.487E+02	-8.696E+00	 1.426E+03	 1.162E+04	-4.034E+01	 1.994E-01	-3.892E-02
   8.300	 1.200E+01	 0.000E+00	 0.000E+00	 0.000E+00	 0.000E+00	 9.824E+00	-3.288E-01	-3.601E-01	 0.000E+00	 0.000E+00	 0.000E+00	 2.966E+02	 9.784E+02	 3.619E+00	-1.964E+00	-2.610E+02	-4.087E+01	 1.525E+01	 2.046E-01	-3.942E-02	 7.271E+02	-7.335E+02	-4.006E+01	 1.823E+03	 8.377E+00	 1.519E+03	 3.729E-01	 1.556E+03	 1.640E+02	 7.170E+02	 2.072E+01	 1.089E+00	-3.288E-01	 6.329E+00	 1.520E+02	-9.414E+00	 1.463E+03	 1.190E+04	-4.004E+01	 2.046E-01	-3.942E-02
   8.350	 1.200E+01	 0.000E+00	 0.000E+00	 0.000E+00	 0.000E+00	 9.777E+00	-3.472E-01	-3.442E-01	 0.000E+00	 0.000E+00	 0.000E+00	 2.539E+02	 9.762E+02	 3.903E+00	-1.955E+00	-2.609E+02	-3.884E+01	 1.504E+01	 2.094E-01	-3.969E-02	 7.301E+02	-7.271E+02	-4.057E+01	 1.821E+03	 8.377E+00	 1.517E+03	 3.725E-01	 1.561E+03	 1.651E+02	 7.202E+02	 2.070E+01	 1.107E+00	-3.472E-01	 6.322E+00	 1.551E+02	-9.746E+00	 1.479E+03	 1.216E+04	-4.055E+01	 2.094E-01	-3.969E-02
   8.400	 1.200E+01	 0.000E+00	 0.000E+00	 0.000E+00	 0.000E+00	 9.754E+00	-3.649E-01	-3.279E-01	 0.000E+00	 0.000E+00	 0.000E+00	 2.077E+02	 9.757E+02	 4.348E+00	-2.003E+00	-2.609E+02	-3.681E+01	 1.445E+01	 2.138E-01	-3.973E-02	 7.306E+02	-7.211E+02	-4.102E+01	 1.819E+03	 8.377E+00	 1.516E+03	 3.722E-01	 1.560E+03	 1.671E+02	 7.205E+02	 2.068E+01	 1.124E+00	-3.649E-01	 6.316E+00	 1.580E+02	-9.415E+00	 1.469E+03	 1.239E+04	-4.100E+01	 2.138E-01	-3.973E-02
   8.450	 1.200E+01	 0.000E+00	 0.000E+00	 0.000E+00	 0.000E+00	 9.706E+00	-3.809E-01	-3.103E-01	 0.000E+00	 0.000E+00	 0.000E+00	 1.601E+02	 9.745E+02	 4.830E+00	-2.043E+00	-2.609E+02	-3.455E+01	 1.395E+01	 2.177E-01	-3.954E-02	 7.305E+02	-7.154E+02	-4.137E+01	 1.817E+03	 8.377E+00	 1.514E+03	 3.718E-01	 1.558E+03	 1.691E+02	 7.203E+02	 2.066E+01	 1.142E+00	-3.809E-01	 6.310E+00	 1.606E+02	-8.742E+00	 1.442E+03	 1.260E+04	-4.135E+01	 2.177E-01	-3.954E-02
   8.500	 1.200E+01	 0.000E+00	 0.000E+00	 0.000E+00	 0.000E+00	 9.659E+00	-3.953E-01	-2.921E-01	 0.000E+00	 0.000E+00	 0.000E+00	 1.121E+02	 9.695E+02	 5.103E+00	-2.011E+00	-2.608E+02	-3.205E+01	 1.340E+01	 2.210E-01	-3.912E-02	 7.301E+02	-7.099E+02	-4.203E+01	 1.816E+03	 8.377E+00	 1.513E+03	 3.715E-01	 1.557E+03	 1.697E+02	 7.202E+02	 2.064E+01	 1.159E+00	-3.953E-01	 6.305E+00	 1.626E+02	-8.102E+00	 1.408E+03	 1.277E+04	-4.200E+01	 2.210E-01	-3.912E-02
   8.550	 1.200E+01	 0.000E+00	 0.000E+00	 0.000E+00	 0.000E+00	 9.613E+00	-4.080E-01	-2.735E-01	 0.000E+00	 0.000E+00	 0.000E+00	 6.443E+01	 9.649E+02	 5.406E+00	-1.829E+00	-2.607E+02	-2.936E+01	 1.263E+01	 2.238E-01	-3.848E-02	 7.324E+02	-7.047E+02	-4.374E+01	 1.814E+03	 8.377E+00	 1.512E+03	 3.712E-01	 1.563E+03	 1.704E+02	 7.235E+02	 2.063E+01	 1.176E+00	-4.080E-01	 6.300E+00	 1.643E+02	-7.797E+00	 1.373E+03	 1.291E+04	-4.370E+01	 2.238E-01	-3.848E-02
[...]
 117.900	 1.300E+01	 0.000E+00	 0.000E+00	 0.000E+00	 0.000E+00	 1.013E+01	-3.171E-01	-1.114E-01	 0.000E+00	 0.000E+00	 0.000E+00	-3.762E+02	 9.255E+02	 8.795E+00	 6.310E-01	-2.618E+02	-2.933E+01	 1.944E+00	 2.101E-01	-2.605E-02	 7.335E+02	-7.149E+02	-6.431E+01	 1.800E+03	 8.377E+00	 1.500E+03	 2.896E-01	 1.579E+03	 1.773E+02	 7.369E+02	 2.046E+01	 1.269E+00	-3.171E-01	 5.769E+00	 1.524E+02	 9.113E-01	 6.833E+02	 1.206E+04	-6.431E+01	 2.101E-01	-2.605E-02
 117.950	 1.300E+01	 0.000E+00	 0.000E+00	 0.000E+00	 0.000E+00	 1.013E+01	-2.983E-01	-1.183E-01	 0.000E+00	 0.000E+00	 0.000E+00	-3.559E+02	 9.272E+02	 8.653E+00	 6.293E-01	-2.618E+02	-2.937E+01	 1.822E+00	 2.101E-01	-2.609E-02	 7.335E+02	-7.149E+02	-6.442E+01	 1.800E+03	 8.377E+00	 1.500E+03	 2.896E-01	 1.579E+03	 1.773E+02	 7.368E+02	 2.046E+01	 1.264E+00	-2.983E-01	 5.769E+00	 1.524E+02	 8.811E-01	 6.859E+02	 1.206E+04	-6.442E+01	 2.101E-01	-2.609E-02
 118.000	 1.300E+01	 0.000E+00	 0.000E+00	 0.000E+00	 0.000E+00	 1.013E+01	-2.793E-01	-1.271E-01	 0.000E+00	 0.000E+00	 0.000E+00	-3.309E+02	 9.298E+02	 8.485E+00	 6.275E-01	-2.618E+02	-2.932E+01	 1.729E+00	 2.101E-01	-2.614E-02	 7.336E+02	-7.149E+02	-6.450E+01	 1.800E+03	 8.377E+00	 1.500E+03	 2.896E-01	 1.579E+03	 1.773E+02	 7.368E+02	 2.046E+01	 1.259E+00	-2.793E-01	 5.769E+00	 1.524E+02	 8.529E-01	 6.885E+02	 1.206E+04	-6.450E+01	 2.101E-01	-2.614E-02
 118.050	 1.300E+01	 0.000E+00	 0.000E+00	 0.000E+00	 0.000E+00	 1.013E+01	-2.603E-01	-1.377E-01	 0.000E+00	 0.000E+00	 0.000E+00	-3.016E+02	 9.334E+02	 8.292E+00	 6.271E-01	-2.618E+02	-2.921E+01	 1.657E+00	 2.101E-01	-2.619E-02	 7.336E+02	-7.148E+02	-6.457E+01	 1.800E+03	 8.377E+00	 1.500E+03	 2.896E-01	 1.579E+03	 1.773E+02	 7.369E+02	 2.046E+01	 1.254E+00	-2.603E-01	 5.769E+00	 1.524E+02	 8.207E-01	 6.912E+02	 1.206E+04	-6.457E+01	 2.101E-01	-2.619E-02
 118.100	 1.300E+01	 0.000E+00	 0.000E+00	 0.000E+00	 0.000E+00	 1.013E+01	-2.416E-01	-1.499E-01	 0.000E+00	 0.000E+00	 0.000E+00	-2.683E+02	 9.378E+02	 8.076E+00	 6.278E-01	-2.618E+02	-2.907E+01	 1.617E+00	 2.101E-01	-2.624E-02	 7.337E+02	-7.146E+02	-6.461E+01	 1.800E+03	 8.377E+00	 1.500E+03	 2.896E-01	 1.579E+03	 1.773E+02	 7.369E+02	 2.046E+01	 1.249E+00	-2.416E-01	 5.769E+00	 1.524E+02	 7.836E-01	 6.939E+02	 1.206E+04	-6.461E+01	 2.101E-01	-2.624E-02
 118.150	 1.300E+01	 0.000E+00	 0.000E+00	 0.000E+00	 0.000E+00	 1.013E+01	-2.233E-01	-1.636E-01	 0.000E+00	 0.000E+00	 0.000E+00	-2.314E+02	 9.431E+02	 7.838E+00	 6.281E-01	-2.617E+02	-2.893E+01	 1.625E+00	 2.101E-01	-2.628E-02	 7.337E+02	-7.145E+02	-6.460E+01	 1.800E+03	 8.377E+00	 1.500E+03	 2.897E-01	 1.579E+03	 1.773E+02	 7.369E+02	 2.046E+01	 1.243E+00	-2.233E-01	 5.769E+00	 1.524E+02	 7.450E-01	 6.966E+02	 1.206E+04	-6.460E+01	 2.101E-01	-2.628E-02
 118.200	 1.300E+01	 0.000E+00	 0.000E+00	 0.000E+00	 0.000E+00	 1.013E+01	-2.057E-01	-1.787E-01	 0.000E+00	 0.000E+00	 0.000E+00	-1.913E+02	 9.492E+02	 7.579E+00	 6.230E-01	-2.617E+02	-2.873E+01	 1.729E+00	 2.101E-01	-2.632E-02	 7.337E+02	-7.142E+02	-6.447E+01	 1.800E+03	 8.377E+00	 1.500E+03	 2.897E-01	 1.579E+03	 1.773E+02	 7.368E+02	 2.046E+01	 1.237E+00	-2.057E-01	 5.769E+00	 1.524E+02	 7.098E-01	 6.990E+02	 1.206E+04	-6.447E+01	 2.101E-01	-2.632E-02
 118.250	 1.300E+01	 0.000E+00	 0.000E+00	 0.000E+00	 0.000E+00	 1.013E+01	-1.889E-01	-1.949E-01	 0.000E+00	 0.000E+00	 0.000E+00	-1.485E+02	 9.559E+02	 7.301E+00	 6.129E-01	-2.617E+02	-2.852E+01	 1.921E+00	 2.101E-01	-2.636E-02	 7.337E+02	-7.140E+02	-6.425E+01	 1.800E+03	 8.377E+00	 1.500E+03	 2.897E-01	 1.579E+03	 1.773E+02	 7.368E+02	 2.046E+01	 1.231E+00	-1.889E-01	 5.769E+00	 1.524E+02	 6.815E-01	 7.011E+02	 1.206E+04	-6.425E+01	 2.101E-01	-2.636E-02
 118.300	 1.300E+01	 0.000E+00	 0.000E+00	 0.000E+00	 0.000E+00	 1.013E+01	-1.732E-01	-2.122E-01	 0.000E+00	 0.000E+00	 0.000E+00	-1.034E+02	 9.633E+02	 7.005E+00	 6.022E-01	-2.617E+02	-2.840E+01	 2.153E+00	 2.101E-01	-2.639E-02	 7.338E+02	-7.138E+02	-6.398E+01	 1.800E+03	 8.377E+00	 1.500E+03	 2.897E-01	 1.579E+03	 1.772E+02	 7.369E+02	 2.046E+01	 1.225E+00	-1.732E-01	 5.769E+00	 1.524E+02	 6.630E-01	 7.027E+02	 1.206E+04	-6.398E+01	 2.101E-01	-2.639E-02
 118.350	 1.300E+01	 0.000E+00	 0.000E+00	 0.000E+00	 0.000E+00	 1.013E+01	-1.587E-01	-2.303E-01	 0.000E+00	 0.000E+00	 0.000E+00	-5.666E+01	 9.712E+02	 6.694E+00	 5.896E-01	-2.617E+02	-2.838E+01	 2.395E+00	 2.102E-01	-2.642E-02	 7.339E+02	-7.137E+02	-6.370E+01	 1.800E+03	 8.377E+00	 1.500E+03	 2.897E-01	 1.579E+03	 1.773E+02	 7.369E+02	 2.046E+01	 1.220E+00	-1.587E-01	 5.769E+00	 1.524E+02	 6.545E-01	 7.039E+02	 1.206E+04	-6.370E+01	 2.102E-01	-2.642E-02
 118.400	 1.300E+01	 0.000E+00	 0.000E+00	 0.000E+00	 0.000E+00	 1.013E+01	-1.456E-01	-2.490E-01	 0.000E+00	 0.000E+00	 0.000E+00	-8.693E+00	 9.795E+02	 6.371E+00	 5.742E-01	-2.617E+02	-2.841E+01	 2.590E+00	 2.102E-01	-2.644E-02	 7.339E+02	-7.137E+02	-6.345E+01	 1.800E+03	 8.377E+00	 1.500E+03	 2.897E-01	 1.579E+03	 1.773E+02	 7.368E+02	 2.046E+01	 1.214E+00	-1.456E-01	 5.769E+00	 1.524E+02	 6.495E-01	 7.048E+02	 1.206E+04	-6.345E+01	 2.102E-01	-2.644E-02
 118.450	 1.300E+01	 0.000E+00	 0.000E+00	 0.000E+00	 0.000E+00	 1.013E+01	-1.340E-01	-2.680E-01	 0.000E+00	 0.000E+00	 0.000E+00	 3.989E+01	 9.883E+02	 6.038E+00	 5.563E-01	-2.617E+02	-2.843E+01	 2.684E+00	 2.102E-01	-2.646E-02	 7.339E+02	-7.137E+02	-6.330E+01	 1.800E+03	 8.377E+00	 1.500E+03	 2.897E-01	 1.579E+03	 1.773E+02	 7.368E+02	 2.046E+01	 1.208E+00	-1.340E-01	 5.769E+00	 1.524E+02	 6.418E-01	 7.056E+02	 1.207E+04	-6.330E+01	 2.102E-01	-2.646E-02
 118.500	 1.300E+01	 0.000E+00	 0.000E+00	 0.000E+00	 0.000E+00	 1.013E+01	-1.241E-01	-2.873E-01	 0.000E+00	 0.000E+00	 0.000E+00	 8.856E+01	 9.972E+02	 5.699E+00	 5.387E-01	-2.617E+02	-2.845E+01	 2.717E+00	 2.102E-01	-2.647E-02	 7.340E+02	-7.137E+02	-6.321E+01	 1.800E+03	 8.377E+00	 1.500E+03	 2.896E-01	 1.579E+03	 1.772E+02	 7.368E+02	 2.046E+01	 1.203E+00	-1.241E-01	 5.769E+00	 1.525E+02	 6.284E-01	 7.064E+02	 1.207E+04	-6.321E+01	 2.102E-01	-2.647E-02
 118.550	 1.300E+01	 0.000E+00	 0.000E+00	 0.000E+00	 0.000E+00	 1.013E+01	-1.160E-01	-3.064E-01	 0.000E+00	 0.000E+00	 0.000E+00	 1.367E+02	 1.006E+03	 5.357E+00	 5.244E-01	-2.617E+02	-2.852E+01	 2.734E+00	 2.102E-01	-2.648E-02	 7.340E+02	-7.138E+02	-6.315E+01	 1.800E+03	 8.377E+00	 1.500E+03	 2.896E-01	 1.579E+03	 1.772E+02	 7.369E+02	 2.046E+01	 1.198E+00	-1.160E-01	 5.769E+00	 1.525E+02	 6.196E-01	 7.068E+02	 1.207E+04	-6.315E+01	 2.102E-01	-2.648E-02
 118.600	 1.300E+01	 0.000E+00	 0.000E+00	 0.000E+00	 0.000E+00	 1.013E+01	-1.097E-01	-3.253E-01	 0.000E+00	 0.000E+00	 0.000E+00	 1.837E+02	 1.015E+03	 5.018E+00	 5.151E-01	-2.617E+02	-2.865E+01	 2.750E+00	 2.102E-01	-2.648E-02	 7.340E+02	-7.139E+02	-6.311E+01	 1.800E+03	 8.377E+00	 1.500E+03	 2.897E-01	 1.579E+03	 1.773E+02	 7.369E+02	 2.046E+01	 1.193E+00	-1.097E-01	 5.769E+00	 1.525E+02	 6.226E-01	 7.069E+02	 1.207E+04	-6.311E+01	 2.102E-01	-2.648E-02
 118.650	 1.300E+01	 0.000E+00	 0.000E+00	 0.000E+00	 0.000E+00	 1.013E+01	-1.054E-01	-3.435E-01	 0.000E+00	 0.000E+00	 0.000E+00	 2.291E+02	 1.024E+03	 4.686E+00	 5.123E-01	-2.617E+02	-2.880E+01	 2.730E+00	 2.102E-01	-2.649E-02	 7.340E+02	-7.141E+02	-6.311E+01	 1.800E+03	 8.377E+00	 1.500E+03	 2.897E-01	 1.579E+03	 1.773E+02	 7.369E+02	 2.046E+01	 1.189E+00	-1.054E-01	 5.769E+00	 1.525E+02	 6.343E-01	 7.065E+02	 1.207E+04	-6.312E+01	 2.102E-01	-2.649E-02
 118.700	 1.300E+01	 0.000E+00	 0.000E+00	 0.000E+00	 0.000E+00	 1.013E+01	-1.031E-01	-3.611E-01	 0.000E+00	 0.000E+00	 0.000E+00	 2.723E+02	 1.033E+03	 4.364E+00	 5.170E-01	-2.617E+02	-2.895E+01	 2.646E+00	 2.103E-01	-2.648E-02	 7.340E+02	-7.143E+02	-6.321E+01	 1.800E+03	 8.377E+00	 1.500E+03	 2.897E-01	 1.579E+03	 1.773E+02	 7.368E+02	 2.046E+01	 1.185E+00	-1.031E-01	 5.769E+00	 1.525E+02	 6.435E-01	 7.061E+02	 1.207E+04	-6.321E+01	 2.103E-01	-2.648E-02
 118.750	 1.300E+01	 0.000E+00	 0.000E+00	 0.000E+00	 0.000E+00	 1.013E+01	-1.028E-01	-3.777E-01	 0.000E+00	 0.000E+00	 0.000E+00	 3.128E+02	 1.042E+03	 4.057E+00	 5.273E-01	-2.617E+02	-2.907E+01	 2.501E+00	 2.103E-01	-2.647E-02	 7.340E+02	-7.145E+02	-6.339E+01	 1.800E+03	 8.377E+00	 1.500E+03	 2.897E-01	 1.579E+03	 1.773E+02	 7.369E+02	 2.046E+01	 1.182E+00	-1.028E-01	 5.769E+00	 1.525E+02	 6.436E-01	 7.059E+02	 1.207E+04	-6.339E+01	 2.103E-01	-2.647E-02
 118.800	 1.300E+01	 0.000E+00	 0.000E+00	 0.000E+00	 0.000E+00	 1.013E+01	-1.046E-01	-3.932E-01	 0.000E+00	 0.000E+00	 0.000E+00	 3.503E+02	 1.050E+03	 3.769E+00	 5.405E-01	-2.617E+02	-2.918E+01	 2.315E+00	 2.103E-01	-2.646E-02	 7.340E+02	-7.146E+02	-6.362E+01	 1.800E+03	 8.377E+00	 1.500E+03	 2.897E-01	 1.579E+03	 1.773E+02	 7.369E+02	 2.046E+01	 1.179E+00	-1.046E-01	 5.769E+00	 1.525E+02	 6.383E-01	 7.056E+02	 1.207E+04	-6.362E+01	 2.103E-01	-2.646E-02
 118.850	 1.300E+01	 0.000E+00	 0.000E+00	 0.000E+00	 0.000E+00	 1.013E+01	-1.085E-01	-4.074E-01	 0.000E+00	 0.000E+00	 0.000E+00	 3.843E+02	 1.057E+03	 3.505E+00	 5.526E-01	-2.617E+02	-2.926E+01	 2.092E+00	 2.103E-01	-2.645E-02	 7.339E+02	-7.147E+02	-6.388E+01	 1.800E+03	 8.377E+00	 1.500E+03	 2.897E-01	 1.579E+03	 1.773E+02	 7.369E+02	 2.046E+01	 1.177E+00	-1.085E-01	 5.769E+00	 1.525E+02	 6.385E-01	 7.050E+02	 1.207E+04	-6.388E+01	 2.103E-01	-2.645E-02
 118.900	 1.300E+01	 0.000E+00	 0.000E+00	 0.000E+00	 0.000E+00	 1.013E+01	-1.143E-01	-4.201E-01	 0.000E+00	 0.000E+00	 0.000E+00	 4.144E+02	 1.064E+03	 3.269E+00	 5.636E-01	-2.617E+02	-2.931E+01	 1.908E+00	 2.103E-01	-2.643E-02	 7.339E+02	-7.147E+02	-6.410E+01	 1.800E+03	 8.377E+00	 1.500E+03	 2.897E-01	 1.579E+03	 1.773E+02	 7.369E+02	 2.046E+01	 1.176E+00	-1.143E-01	 5.769E+00	 1.525E+02	 6.514E-01	 7.039E+02	 1.207E+04	-6.410E+01	 2.103E-01	-2.643E-02
 118.950	 1.300E+01	 0.000E+00	 0.000E+00	 0.000E+00	 0.000E+00	 1.013E+01	-1.221E-01	-4.313E-01	 0.000E+00	 0.000E+00	 0.000E+00	 4.402E+02	 1.071E+03	 3.065E+00	 5.759E-01	-2.618E+02	-2.930E+01	 1.799E+00	 2.103E-01	-2.641E-02	 7.338E+02	-7.147E+02	-6.425E+01	 1.800E+03	 8.377E+00	 1.500E+03	 2.897E-01	 1.579E+03	 1.773E+02	 7.368E+02	 2.046E+01	 1.175E+00	-1.221E-01	 5.769E+00	 1.525E+02	 6.748E-01	 7.024E+02	 1.207E+04	-6.425E+01	 2.103E-01	-2.641E-02
 119.000	 1.300E+01	 0.000E+00	 0.000E+00	 0.000E+00	 0.000E+00	 1.013E+01	-1.317E-01	-4.407E-01	 0.000E+00	 0.000E+00	 0.000E+00	 4.614E+02	 1.077E+03	 2.897E+00	 5.891E-01	-2.618E+02	-2.921E+01	 1.702E+00	 2.103E-01	-2.638E-02	 7.338E+02	-7.146E+02	-6.439E+01	 1.800E+03	 8.377E+00	 1.500E+03	 2.897E-01	 1.579E+03	 1.773E+02	 7.369E+02	 2.046E+01	 1.175E+00	-1.317E-01	 5.769E+00	 1.525E+02	 6.998E-01	 7.007E+02	 1.207E+04	-6.439E+01	 2.103E-01	-2.638E-02
 119.050	 1.300E+01	 0.000E+00	 0.000E+00	 0.000E+00	 0.000E+00	 1.013E+01	-1.430E-01	-4.483E-01	 0.000E+00	 0.000E+00	 0.000E+00	 4.779E+02	 1.082E+03	 2.768E+00	 6.045E-01	-2.618E+02	-2.907E+01	 1.633E+00	 2.103E-01	-2.635E-02	 7.338E+02	-7.145E+02	-6.451E+01	 1.800E+03	 8.377E+00	 1.500E+03	 2.897E-01	 1.579E+03	 1.773E+02	 7.369E+02	 2.046E+01	 1.175E+00	-1.430E-01	 5.769E+00	 1.525E+02	 7.219E-01	 6.989E+02	 1.207E+04	-6.451E+01	 2.103E-01	-2.635E-02
 119.100	 1.300E+01	 0.000E+00	 0.000E+00	 0.000E+00	 0.000E+00	 1.013E+01	-1.560E-01	-4.540E-01	 0.000E+00	 0.000E+00	 0.000E+00	 4.894E+02	 1.086E+03	 2.681E+00	 6.204E-01	-2.617E+02	-2.892E+01	 1.601E+00	 2.103E-01	-2.631E-02	 7.337E+02	-7.143E+02	-6.460E+01	 1.800E+03	 8.377E+00	 1.500E+03	 2.897E-01	 1.579E+03	 1.773E+02	 7.369E+02	 2.046E+01	 1.176E+00	-1.560E-01	 5.769E+00	 1.525E+02	 7.417E-01	 6.971E+02	 1.207E+04	-6.460E+01	 2.103E-01	-2.631E-02
 119.150	 1.300E+01	 0.000E+00	 0.000E+00	 0.000E+00	 0.000E+00	 1.013E+01	-1.703E-01	-4.576E-01	 0.000E+00	 0.000E+00	 0.000E+00	 4.957E+02	 1.089E+03	 2.637E+00	 6.356E-01	-2.617E+02	-2.877E+01	 1.627E+00	 2.103E-01	-2.627E-02	 7.337E+02	-7.142E+02	-6.462E+01	 1.800E+03	 8.377E+00	 1.500E+03	 2.897E-01	 1.579E+03	 1.773E+02	 7.369E+02	 2.046E+01	 1.178E+00	-1.703E-01	 5.769E+00	 1.525E+02	 7.621E-01	 6.951E+02	 1.207E+04	-6.462E+01	 2.103E-01	-2.627E-02
 119.200	 1.300E+01	 0.000E+00	 0.000E+00	 0.000E+00	 0.000E+00	 1.013E+01	-1.859E-01	-4.592E-01	 0.000E+00	 0.000E+00	 0.000E+00	 4.968E+02	 1.092E+03	 2.638E+00	 6.420E-01	-2.617E+02	-2.853E+01	 1.781E+00	 2.103E-01	-2.623E-02	 7.336E+02	-7.139E+02	-6.449E+01	 1.800E+03	 8.377E+00	 1.500E+03	 2.897E-01	 1.579E+03	 1.773E+02	 7.368E+02	 2.046E+01	 1.180E+00	-1.859E-01	 5.769E+00	 1.525E+02	 7.868E-01	 6.929E+02	 1.207E+04	-6.449E+01	 2.103E-01	-2.623E-02
 119.250	 1.300E+01	 0.000E+00	 0.000E+00	 0.000E+00	 0.000E+00	 1.013E+01	-2.027E-01	-4.588E-01	 0.000E+00	 0.000E+00	 0.000E+00	 4.927E+02	 1.093E+03	 2.683E+00	 6.464E-01	-2.617E+02	-2.835E+01	 1.983E+00	 2.102E-01	-2.619E-02	 7.336E+02	-7.137E+02	-6.430E+01	 1.800E+03	 8.377E+00	 1.500E+03	 2.897E-01	 1.579E+03	 1.773E+02	 7.368E+02	 2.046E+01	 1.183E+00	-2.027E-01	 5.769E+00	 1.525E+02	 8.183E-01	 6.904E+02	 1.207E+04	-6.430E+01	 2.102E-01	-2.619E-02
 119.300	 1.300E+01	 0.000E+00	 0.000E+00	 0.000E+00	 0.000E+00	 1.013E+01	-2.203E-01	-4.563E-01	 0.000E+00	 0.000E+00	 0.000E+00	 4.835E+02	 1.094E+03	 2.772E+00	 6.494E-01	-2.617E+02	-2.827E+01	 2.217E+00	 2.102E-01	-2.614E-02	 7.336E+02	-7.136E+02	-6.409E+01	 1.800E+03	 8.377E+00	 1.500E+03	 2.897E-01	 1.579E+03	 1.773E+02	 7.368E+02	 2.046E+01	 1.186E+00	-2.203E-01	 5.769E+00	 1.524E+02	 8.575E-01	 6.876E+02	 1.207E+04	-6.408E+01	 2.102E-01	-2.614E-02
 119.350	 1.300E+01	 0.000E+00	 0.000E+00	 0.000E+00	 0.000E+00	 1.013E+01	-2.387E-01	-4.518E-01	 0.000E+00	 0.000E+00	 0.000E+00	 4.693E+02	 1.093E+03	 2.904E+00	 6.489E-01	-2.617E+02	-2.828E+01	 2.438E+00	 2.102E-01	-2.609E-02	 7.336E+02	-7.135E+02	-6.387E+01	 1.800E+03	 8.377E+00	 1.500E+03	 2.897E-01	 1.579E+03	 1.773E+02	 7.368E+02	 2.046E+01	 1.190E+00	-2.387E-01	 5.769E+00	 1.524E+02	 9.011E-01	 6.847E+02	 1.207E+04	-6.387E+01	 2.102E-01	-2.609E-02
 119.400	 1.300E+01	 0.000E+00	 0.000E+00	 0.000E+00	 0.000E+00	 1.013E+01	-2.575E-01	-4.453E-01	 0.000E+00	 0.000E+00	 0.000E+00	 4.501E+02	 1.092E+03	 3.076E+00	 6.447E-01	-2.617E+02	-2.831E+01	 2.587E+00	 2.102E-01	-2.605E-02	 7.335E+02	-7.135E+02	-6.370E+01	 1.800E+03	 8.377E+00	 1.500E+03	 2.897E-01	 1.579E+03	 1.773E+02	 7.368E+02	 2.046E+01	 1.194E+00	-2.575E-01	 5.769E+00	 1.524E+02	 9.406E-01	 6.820E+02	 1.207E+04	-6.370E+01	 2.102E-01	-2.605E-02
 119.450	 1.300E+01	 0.000E+00	 0.000E+00	 0.000E+00	 0.000E+00	 1.013E+01	-2.767E-01	-4.370E-01	 0.000E+00	 0.000E+00	 0.000E+00	 4.264E+02	 1.090E+03	 3.285E+00	 6.376E-01	-2.617E+02	-2.833E+01	 2.637E+00	 2.102E-01	-2.601E-02	 7.335E+02	-7.136E+02	-6.363E+01	 1.800E+03	 8.377E+00	 1.500E+03	 2.897E-01	 1.579E+03	 1.772E+02	 7.368E+02	 2.046E+01	 1.199E+00	-2.767E-01	 5.769E+00	 1.524E+02	 9.703E-01	 6.796E+02	 1.207E+04	-6.363E+01	 2.102E-01	-2.601E-02
 119.500	 1.300E+01	 0.000E+00	 0.000E+00	 0.000E+00	 0.000E+00	 1.013E+01	-2.959E-01	-4.269E-01	 0.000E+00	 0.000E+00	 0.000E+00	 3.983E+02	 1.086E+03	 3.527E+00	 6.302E-01	-2.617E+02	-2.837E+01	 2.654E+00	 2.102E-01	-2.596E-02	 7.335E+02	-7.136E+02	-6.360E+01	 1.800E+03	 8.377E+00	 1.500E+03	 2.897E-01	 1.579E+03	 1.772E+02	 7.368E+02	 2.046E+01	 1.204E+00	-2.959E-01	 5.769E+00	 1.524E+02	 9.922E-01	 6.775E+02	 1.207E+04	-6.360E+01	 2.102E-01	-2.596E-02
 119.550	 1.300E+01	 0.000E+00	 0.000E+00	 0.000E+00	 0.000E+00	 1.013E+01	-3.149E-01	-4.152E-01	 0.000E+00	 0.000E+00	 0.000E+00	 3.663E+02	 1.082E+03	 3.801E+00	 6.258E-01	-2.617E+02	-2.848E+01	 2.671E+00	 2.102E-01	-2.593E-02	 7.335E+02	-7.138E+02	-6.358E+01	 1.800E+03	 8.377E+00	 1.500E+03	 2.897E-01	 1.579E+03	 1.772E+02	 7.369E+02	 2.046E+01	 1.210E+00	-3.149E-01	 5.769E+00	 1.524E+02	 1.017E+00	 6.755E+02	 1.206E+04	-6.358E+01	 2.102E-01	-2.593E-02
 119.600	 1.300E+01	 0.000E+00	 0.000E+00	 0.000E+00	 0.000E+00	 1.013E+01	-3.335E-01	-4.020E-01	 0.000E+00	 0.000E+00	 0.000E+00	 3.306E+02	 1.077E+03	 4.101E+00	 6.251E-01	-2.617E+02	-2.862E+01	 2.672E+00	 2.102E-01	-2.590E-02	 7.335E+02	-7.140E+02	-6.357E+01	 1.800E+03	 8.377E+00	 1.500E+03	 2.897E-01	 1.579E+03	 1.772E+02	 7.369E+02	 2.046E+01	 1.215E+00	-3.335E-01	 5.769E+00	 1.524E+02	 1.047E+00	 6.736E+02	 1.206E+04	-6.357E+01	 2.102E-01	-2.590E-02
 119.650	 1.300E+01	 0.000E+00	 0.000E+00	 0.000E+00	 0.000E+00	 1.013E+01	-3.515E-01	-3.874E-01	 0.000E+00	 0.000E+00	 0.000E+00	 2.917E+02	 1.072E+03	 4.424E+00	 6.297E-01	-2.617E+02	-2.879E+01	 2.626E+00	 2.102E-01	-2.587E-02	 7.334E+02	-7.142E+02	-6.363E+01	 1.800E+03	 8.377E+00	 1.500E+03	 2.897E-01	 1.579E+03	 1.772E+02	 7.368E+02	 2.046E+01	 1.221E+00	-3.515E-01	 5.769E+00	 1.524E+02	 1.074E+00	 6.721E+02	 1.206E+04	-6.363E+01	 2.102E-01	-2.587E-02
 119.700	 1.300E+01	 0.000E+00	 0.000E+00	 0.000E+00	 0.000E+00	 1.013E+01	-3.687E-01	-3.716E-01	 0.000E+00	 0.000E+00	 0.000E+00	 2.500E+02	 1.065E+03	 4.763E+00	 6.397E-01	-2.617E+02	-2.894E+01	 2.513E+00	 2.101E-01	-2.586E-02	 7.334E+02	-7.144E+02	-6.378E+01	 1.800E+03	 8.377E+00	 1.500E+03	 2.897E-01	 1.579E+03	 1.773E+02	 7.368E+02	 2.046E+01	 1.227E+00	-3.687E-01	 5.769E+00	 1.524E+02	 1.086E+00	 6.711E+02	 1.206E+04	-6.378E+01	 2.101E-01	-2.586E-02
 119.750	 1.300E+01	 0.000E+00	 0.000E+00	 0.000E+00	 0.000E+00	 1.013E+01	-3.848E-01	-3.548E-01	 0.000E+00	 0.000E+00	 0.000E+00	 2.059E+02	 1.058E+03	 5.115E+00	 6.520E-01	-2.617E+02	-2.907E+01	 2.350E+00	 2.101E-01	-2.584E-02	 7.334E+02	-7.146E+02	-6.398E+01	 1.800E+03	 8.377E+00	 1.500E+03	 2.897E-01	 1.579E+03	 1.773E+02	 7.368E+02	 2.046E+01	 1.233E+00	-3.848E-01	 5.769E+00	 1.524E+02	 1.084E+00	 6.708E+02	 1.206E+04	-6.398E+01	 2.101E-01	-2.584E-02
 119.800	 1.300E+01	 0.000E+00	 0.000E+00	 0.000E+00	 0.000E+00	 1.013E+01	-3.997E-01	-3.372E-01	 0.000E+00	 0.000E+00	 0.000E+00	 1.600E+02	 1.050E+03	 5.474E+00	 6.632E-01	-2.618E+02	-2.918E+01	 2.144E+00	 2.101E-01	-2.584E-02	 7.334E+02	-7.147E+02	-6.422E+01	 1.800E+03	 8.377E+00	 1.500E+03	 2.897E-01	 1.579E+03	 1.773E+02	 7.369E+02	 2.046E+01	 1.239E+00	-3.997E-01	 5.769E+00	 1.524E+02	 1.072E+00	 6.710E+02	 1.206E+04	-6.423E+01	 2.101E-01	-2.584E-02
 119.850	 1.300E+01	 0.000E+00	 0.000E+00	 0.000E+00	 0.000E+00	 1.013E+01	-4.133E-01	-3.189E-01	 0.000E+00	 0.000E+00	 0.000E+00	 1.127E+02	 1.042E+03	 5.835E+00	 6.708E-01	-2.618E+02	-2.925E+01	 1.929E+00	 2.101E-01	-2.584E-02	 7.333E+02	-7.148E+02	-6.446E+01	 1.800E+03	 8.377E+00	 1.500E+03	 2.897E-01	 1.579E+03	 1.773E+02	 7.369E+02	 2.046E+01	 1.244E+00	-4.133E-01	 5.769E+00	 1.524E+02	 1.064E+00	 6.713E+02	 1.206E+04	-6.446E+01	 2.101E-01	-2.584E-02
 119.900	 1.300E+01	 0.000E+00	 0.000E+00	 0.000E+00	 0.000E+00	 1.013E+01	-4.254E-01	-3.001E-01	 0.000E+00	 0.000E+00	 0.000E+00	 6.453E+01	 1.034E+03	 6.195E+00	 6.768E-01	-2.618E+02	-2.929E+01	 1.794E+00	 2.101E-01	-2.584E-02	 7.333E+02	-7.149E+02	-6.461E+01	 1.800E+03	 8.377E+00	 1.500E+03	 2.897E-01	 1.579E+03	 1.773E+02	 7.368E+02	 2.046E+01	 1.250E+00	-4.254E-01	 5.769E+00	 1.524E+02	 1.062E+00	 6.716E+02	 1.206E+04	-6.461E+01	 2.101E-01	-2.584E-02
 119.950	 1.300E+01	 0.000E+00	 0.000E+00	 0.000E+00	 0.000E+00	 1.013E+01	-4.357E-01	-2.811E-01	 0.000E+00	 0.000E+00	 0.000E+00	 1.618E+01	 1.025E+03	 6.547E+00	 6.822E-01	-2.618E+02	-2.926E+01	 1.697E+00	 2.101E-01	-2.586E-02	 7.333E+02	-7.148E+02	-6.472E+01	 1.800E+03	 8.377E+00	 1.500E+03	 2.897E-01	 1.579E+03	 1.773E+02	 7.368E+02	 2.046E+01	 1.255E+00	-4.357E-01	 5.769E+00	 1.524E+02	 1.060E+00	 6.721E+02	 1.206E+04	-6.473E+01	 2.101E-01	-2.586E-02
 120.000	 1.300E+01	 0.000E+00	 0.000E+00	 0.000E+00	 0.000E+00	 1.013E+01	-4.444E-01	-2.621E-01	 0.000E+00	 0.000E+00	 0.000E+00	-3.182E+01	 1.016E+03	 6.886E+00	 6.875E-01	-2.618E+02	-2.916E+01	 1.619E+00	 2.101E-01	-2.587E-02	 7.333E+02	-7.147E+02	-6.482E+01	 1.800E+03	 8.377E+00	 1.500E+03	 2.897E-01	 1.579E+03	 1.773E+02	 7.368E+02	 2.046E+01	 1.260E+00	-4.444E-01	 5.769E+00	 1.524E+02	 1.051E+00	 6.730E+02	 1.206E+04	-6.482E+01	 2.101E-01	-2.587E-02
